Standard file
     RDKit          3D

 11 11  0  0  0  0  0  0  0  0999 V2000
    0.0000   -3.1619   -1.6688 C   0  0  0  0  0  0  0  0  0  0  0  0
    0.0000   -2.0268   -0.7122 C   0  0  0  0  0  0  0  0  0  0  0  0
    0.0000   -0.7792   -1.1049 N   0  0  0  0  0  0  0  0  0  0  0  0
    0.0000    0.0000    0.0000 O   0  0  0  0  0  0  0  0  0  0  0  0
    0.0000   -0.7792    1.0840 C   0  0  0  0  0  0  0  0  0  0  0  0
    0.0000   -2.0869    0.7081 C   0  0  0  0  0  0  0  0  0  0  0  0
    0.8789   -3.1101   -2.3079 H   0  0  0  0  0  0  0  0  0  0  0  0
   -0.8790   -3.1101   -2.3078 H   0  0  0  0  0  0  0  0  0  0  0  0
    0.0000   -4.1067   -1.1322 H   0  0  0  0  0  0  0  0  0  0  0  0
    0.0000   -0.2915    2.0383 H   0  0  0  0  0  0  0  0  0  0  0  0
    0.0000   -2.9583    1.3279 H   0  0  0  0  0  0  0  0  0  0  0  0
  1  2  1  0
  1  8  1  0
  1  7  1  0
  2  3  2  0
  4  3  1  0
  5  4  1  0
  6  5  2  0
  6  2  1  0
  9  1  1  0
 10  5  1  0
 11  6  1  0
M  END
$$$$
