Standard file
     RDKit          3D

 36 38  0  0  0  0  0  0  0  0999 V2000
   -1.0175   -0.2812   -3.4628 C   0  0  0  0  0  0  0  0  0  0  0  0
   -1.1599   -0.3326   -2.1163 N   0  0  0  0  0  0  0  0  0  0  0  0
   -0.0000   -0.7103   -1.3255 C   0  0  0  0  0  0  0  0  0  0  0  0
    0.0000    0.0000    0.0000 C   0  0  0  0  0  0  0  0  0  0  0  0
    0.0000   -0.7103    1.1923 C   0  0  0  0  0  0  0  0  0  0  0  0
   -0.0102   -0.0448    2.4063 C   0  0  0  0  0  0  0  0  0  0  0  0
   -0.0278    1.3388    2.4392 C   0  0  0  0  0  0  0  0  0  0  0  0
   -0.0316    2.0551    1.2534 C   0  0  0  0  0  0  0  0  0  0  0  0
   -0.0161    1.3894    0.0414 C   0  0  0  0  0  0  0  0  0  0  0  0
   -2.4467   -0.5821   -1.5002 C   0  0  0  0  0  0  0  0  0  0  0  0
   -2.6663   -2.0444   -1.1897 C   0  0  0  0  0  0  0  0  0  0  0  0
   -2.9162   -2.4612    0.1105 C   0  0  0  0  0  0  0  0  0  0  0  0
   -3.0929   -3.8039    0.3957 C   0  0  0  0  0  0  0  0  0  0  0  0
   -3.0125   -4.7449   -0.6164 C   0  0  0  0  0  0  0  0  0  0  0  0
   -2.7574   -4.3377   -1.9152 C   0  0  0  0  0  0  0  0  0  0  0  0
   -2.5867   -2.9950   -2.2002 C   0  0  0  0  0  0  0  0  0  0  0  0
    0.1650   -0.3579   -4.0430 N   0  0  0  0  0  0  0  0  0  0  0  0
   -0.0278   -0.1821   -5.3853 O   0  0  0  0  0  0  0  0  0  0  0  0
   -1.3282   -0.0071   -5.6152 C   0  0  0  0  0  0  0  0  0  0  0  0
   -2.0279   -0.0563   -4.4546 C   0  0  0  0  0  0  0  0  0  0  0  0
    0.0204   -1.7975   -1.1687 H   0  0  0  0  0  0  0  0  0  0  0  0
    0.8787   -0.4303   -1.9113 H   0  0  0  0  0  0  0  0  0  0  0  0
    0.0074   -1.7911    1.1688 H   0  0  0  0  0  0  0  0  0  0  0  0
   -0.0079   -0.6080    3.3281 H   0  0  0  0  0  0  0  0  0  0  0  0
   -0.0381    1.8583    3.3861 H   0  0  0  0  0  0  0  0  0  0  0  0
   -0.0441    3.1351    1.2751 H   0  0  0  0  0  0  0  0  0  0  0  0
   -0.0190    1.9430   -0.8861 H   0  0  0  0  0  0  0  0  0  0  0  0
   -2.4939   -0.0016   -0.5725 H   0  0  0  0  0  0  0  0  0  0  0  0
   -3.2326   -0.2194   -2.1654 H   0  0  0  0  0  0  0  0  0  0  0  0
   -2.9703   -1.7281    0.9031 H   0  0  0  0  0  0  0  0  0  0  0  0
   -3.2885   -4.1162    1.4112 H   0  0  0  0  0  0  0  0  0  0  0  0
   -3.1461   -5.7933   -0.3939 H   0  0  0  0  0  0  0  0  0  0  0  0
   -2.6908   -5.0680   -2.7081 H   0  0  0  0  0  0  0  0  0  0  0  0
   -2.3829   -2.6817   -3.2144 H   0  0  0  0  0  0  0  0  0  0  0  0
   -1.6278    0.1412   -6.6339 H   0  0  0  0  0  0  0  0  0  0  0  0
   -3.0835    0.0499   -4.3267 H   0  0  0  0  0  0  0  0  0  0  0  0
  1 17  2  0
  2  1  1  0
  2  3  1  0
  3  4  1  0
  3 22  1  0
  4  9  1  0
  5  4  2  0
  5  6  1  0
  6  7  2  0
  7  8  1  0
  7 25  1  0
  8 26  1  0
  9 27  1  0
  9  8  2  0
 10 28  1  0
 10  2  1  0
 11 10  1  0
 12 30  1  0
 12 11  2  0
 13 12  1  0
 14 13  2  0
 14 15  1  0
 15 16  2  0
 16 11  1  0
 16 34  1  0
 18 17  1  0
 19 18  1  0
 20 19  2  0
 20  1  1  0
 21  3  1  0
 23  5  1  0
 24  6  1  0
 29 10  1  0
 31 13  1  0
 32 14  1  0
 33 15  1  0
 35 19  1  0
 36 20  1  0
M  END
$$$$
