Standard file
     RDKit          3D

 18 19  0  0  0  0  0  0  0  0999 V2000
    0.0000   -2.8298   -2.4549 C   0  0  0  0  0  0  0  0  0  0  0  0
    0.0000   -2.0824   -1.2065 C   0  0  0  0  0  0  0  0  0  0  0  0
    0.0000   -0.6892   -1.1986 C   0  0  0  0  0  0  0  0  0  0  0  0
    0.0000    0.0000    0.0000 C   0  0  0  0  0  0  0  0  0  0  0  0
    0.0000   -0.6892    1.2011 C   0  0  0  0  0  0  0  0  0  0  0  0
    0.0000   -2.0755    1.2012 C   0  0  0  0  0  0  0  0  0  0  0  0
    0.0000   -2.7698    0.0076 C   0  0  0  0  0  0  0  0  0  0  0  0
    0.0000   -4.1439   -2.4749 N   0  0  0  0  0  0  0  0  0  0  0  0
    0.0000   -4.5385   -3.7640 O   0  0  0  0  0  0  0  0  0  0  0  0
    0.0000   -3.4599   -4.5523 C   0  0  0  0  0  0  0  0  0  0  0  0
    0.0000   -2.3332   -3.7924 C   0  0  0  0  0  0  0  0  0  0  0  0
    0.0000   -0.1409   -2.1284 H   0  0  0  0  0  0  0  0  0  0  0  0
    0.0000    1.0803   -0.0031 H   0  0  0  0  0  0  0  0  0  0  0  0
    0.0000   -0.1468    2.1352 H   0  0  0  0  0  0  0  0  0  0  0  0
    0.0000   -2.6146    2.1371 H   0  0  0  0  0  0  0  0  0  0  0  0
    0.0000   -3.8481   -0.0124 H   0  0  0  0  0  0  0  0  0  0  0  0
    0.0000   -3.6268   -5.6110 H   0  0  0  0  0  0  0  0  0  0  0  0
    0.0000   -1.3183   -4.1271 H   0  0  0  0  0  0  0  0  0  0  0  0
  1  8  2  0
  1 11  1  0
  2  1  1  0
  3 12  1  0
  3  2  1  0
  4  3  2  0
  5  6  2  0
  5  4  1  0
  6  7  1  0
  7 16  1  0
  7  2  2  0
  8  9  1  0
  9 10  1  0
 10 17  1  0
 11 10  2  0
 13  4  1  0
 14  5  1  0
 15  6  1  0
 18 11  1  0
M  END
$$$$
