Standard file
     RDKit          3D

 11 11  0  0  0  0  0  0  0  0999 V2000
    0.0000   -3.3667   -1.4319 C   0  0  0  0  0  0  0  0  0  0  0  0
    0.0000   -2.0592   -0.7323 C   0  0  0  0  0  0  0  0  0  0  0  0
    0.0000   -0.7686   -1.1850 C   0  0  0  0  0  0  0  0  0  0  0  0
    0.0000    0.0000    0.0000 C   0  0  0  0  0  0  0  0  0  0  0  0
    0.0000   -0.7686    1.0518 N   0  0  0  0  0  0  0  0  0  0  0  0
    0.0000   -2.0472    0.6101 O   0  0  0  0  0  0  0  0  0  0  0  0
    0.0000   -3.2114   -2.5065 H   0  0  0  0  0  0  0  0  0  0  0  0
    0.8804   -3.9420   -1.1495 H   0  0  0  0  0  0  0  0  0  0  0  0
   -0.8803   -3.9421   -1.1496 H   0  0  0  0  0  0  0  0  0  0  0  0
    0.0000   -0.4218   -2.1964 H   0  0  0  0  0  0  0  0  0  0  0  0
    0.0000    1.0656    0.1083 H   0  0  0  0  0  0  0  0  0  0  0  0
  1  8  1  0
  1  9  1  0
  2  1  1  0
  2  6  1  0
  3  4  1  0
  3  2  2  0
  4  5  2  0
  5  6  1  0
  7  1  1  0
 10  3  1  0
 11  4  1  0
M  END
$$$$
