Standard file
     RDKit          3D

 18 19  0  0  0  0  0  0  0  0999 V2000
   -0.0043   -2.8111   -2.4701 C   0  0  0  0  0  0  0  0  0  0  0  0
    0.0016   -2.0826   -1.2105 C   0  0  0  0  0  0  0  0  0  0  0  0
    0.0000   -0.6891   -1.1982 C   0  0  0  0  0  0  0  0  0  0  0  0
    0.0000    0.0000    0.0000 C   0  0  0  0  0  0  0  0  0  0  0  0
   -0.0000   -0.6891    1.2012 C   0  0  0  0  0  0  0  0  0  0  0  0
    0.0028   -2.0743    1.1986 C   0  0  0  0  0  0  0  0  0  0  0  0
    0.0041   -2.7680    0.0034 C   0  0  0  0  0  0  0  0  0  0  0  0
    0.3755   -4.1038   -2.7298 C   0  0  0  0  0  0  0  0  0  0  0  0
    0.2070   -4.3803   -4.0245 O   0  0  0  0  0  0  0  0  0  0  0  0
   -0.2916   -3.2917   -4.6491 N   0  0  0  0  0  0  0  0  0  0  0  0
   -0.4203   -2.3568   -3.7544 C   0  0  0  0  0  0  0  0  0  0  0  0
    0.0111   -0.1454   -2.1310 H   0  0  0  0  0  0  0  0  0  0  0  0
    0.0005    1.0802   -0.0034 H   0  0  0  0  0  0  0  0  0  0  0  0
   -0.0030   -0.1491    2.1362 H   0  0  0  0  0  0  0  0  0  0  0  0
    0.0013   -2.6166    2.1328 H   0  0  0  0  0  0  0  0  0  0  0  0
   -0.0056   -3.8475    0.0060 H   0  0  0  0  0  0  0  0  0  0  0  0
    0.7802   -4.8842   -2.1171 H   0  0  0  0  0  0  0  0  0  0  0  0
   -0.8133   -1.4006   -4.0339 H   0  0  0  0  0  0  0  0  0  0  0  0
  1 11  1  0
  1  8  2  0
  2  1  1  0
  3 12  1  0
  3  2  2  0
  4  3  1  0
  5  4  2  0
  5  6  1  0
  6  7  2  0
  7 16  1  0
  7  2  1  0
  8  9  1  0
 10  9  1  0
 11 10  2  0
 13  4  1  0
 14  5  1  0
 15  6  1  0
 17  8  1  0
 18 11  1  0
M  END
$$$$
