Standard file
     RDKit          3D

 21 22  0  0  0  0  0  0  0  0999 V2000
   -0.0003    1.3468    2.2717 O   0  0  0  0  0  0  0  0  0  0  0  0
   -0.0001    0.1481    2.3338 C   0  0  0  0  0  0  0  0  0  0  0  0
    0.0000   -0.6566    1.2598 O   0  0  0  0  0  0  0  0  0  0  0  0
    0.0000    0.0000    0.0000 C   0  0  0  0  0  0  0  0  0  0  0  0
   -0.0000   -0.6566    3.5746 C   0  0  0  0  0  0  0  0  0  0  0  0
   -0.0002   -0.1007    4.7653 N   0  0  0  0  0  0  0  0  0  0  0  0
   -0.0000   -1.0888    5.6709 O   0  0  0  0  0  0  0  0  0  0  0  0
    0.0002   -2.2839    5.0439 C   0  0  0  0  0  0  0  0  0  0  0  0
    0.0003   -3.4849    5.8206 C   0  0  0  0  0  0  0  0  0  0  0  0
    0.0003   -3.6039    7.1865 C   0  0  0  0  0  0  0  0  0  0  0  0
    0.0005   -4.9439    7.6130 C   0  0  0  0  0  0  0  0  0  0  0  0
    0.0007   -5.8245    6.5762 C   0  0  0  0  0  0  0  0  0  0  0  0
    0.0006   -5.0407    5.0501 S   0  0  0  0  0  0  0  0  0  0  0  0
    0.0001   -2.0677    3.6856 C   0  0  0  0  0  0  0  0  0  0  0  0
   -0.8874    0.6284   -0.0992 H   0  0  0  0  0  0  0  0  0  0  0  0
    0.0002   -0.7851   -0.7514 H   0  0  0  0  0  0  0  0  0  0  0  0
    0.8871    0.6288   -0.0991 H   0  0  0  0  0  0  0  0  0  0  0  0
    0.0001   -2.7536    7.8435 H   0  0  0  0  0  0  0  0  0  0  0  0
    0.0005   -5.2417    8.6457 H   0  0  0  0  0  0  0  0  0  0  0  0
    0.0008   -6.8957    6.6148 H   0  0  0  0  0  0  0  0  0  0  0  0
    0.0003   -2.7890    2.8975 H   0  0  0  0  0  0  0  0  0  0  0  0
  1  2  2  0
  2  5  1  0
  3  2  1  0
  4  3  1  0
  5 14  1  0
  5  6  2  0
  6  7  1  0
  8  7  1  0
  8  9  1  0
  9 10  2  0
 10 18  1  0
 10 11  1  0
 11 19  1  0
 12 20  1  0
 12 11  2  0
 13  9  1  0
 13 12  1  0
 14  8  2  0
 15  4  1  0
 16  4  1  0
 17  4  1  0
 21 14  1  0
M  END
$$$$
