Standard file
     RDKit          3D

 18 19  0  0  0  0  0  0  0  0999 V2000
   -0.0001   -2.7071   -2.3671 F   0  0  0  0  0  0  0  0  0  0  0  0
    0.0000   -2.0756   -1.1863 C   0  0  0  0  0  0  0  0  0  0  0  0
    0.0000   -0.6932   -1.1969 C   0  0  0  0  0  0  0  0  0  0  0  0
    0.0000    0.0000    0.0000 C   0  0  0  0  0  0  0  0  0  0  0  0
    0.0000   -0.6932    1.1980 C   0  0  0  0  0  0  0  0  0  0  0  0
    0.0000   -2.0736    1.1823 C   0  0  0  0  0  0  0  0  0  0  0  0
    0.0001   -2.7120    2.3663 F   0  0  0  0  0  0  0  0  0  0  0  0
    0.0000   -2.8216   -0.0005 C   0  0  0  0  0  0  0  0  0  0  0  0
    0.0000   -4.2728    0.0001 C   0  0  0  0  0  0  0  0  0  0  0  0
    0.0000   -5.1996    1.0194 C   0  0  0  0  0  0  0  0  0  0  0  0
    0.0000   -6.4332    0.3410 C   0  0  0  0  0  0  0  0  0  0  0  0
    0.0000   -6.2536   -0.9518 N   0  0  0  0  0  0  0  0  0  0  0  0
    0.0000   -4.9310   -1.1742 O   0  0  0  0  0  0  0  0  0  0  0  0
   -0.0001   -0.1810   -2.1457 H   0  0  0  0  0  0  0  0  0  0  0  0
    0.0000    1.0782    0.0003 H   0  0  0  0  0  0  0  0  0  0  0  0
    0.0001   -0.1813    2.1468 H   0  0  0  0  0  0  0  0  0  0  0  0
    0.0000   -5.0347    2.0746 H   0  0  0  0  0  0  0  0  0  0  0  0
    0.0000   -7.4223    0.7518 H   0  0  0  0  0  0  0  0  0  0  0  0
  2  1  1  0
  2  8  1  0
  3  2  2  0
  4  3  1  0
  4  5  2  0
  5  6  1  0
  6  8  2  0
  6  7  1  0
  8  9  1  0
  9 13  1  0
  9 10  2  0
 10 11  1  0
 11 18  1  0
 12 11  2  0
 13 12  1  0
 14  3  1  0
 15  4  1  0
 16  5  1  0
 17 10  1  0
M  END
$$$$
