Standard file
 OpenBabel12142210053D

 21 22  0  0  0  0  0  0  0  0999 V2000
    0.0000   -2.2534   -3.0781 O   0  0  0  0  0  0  0  0  0  0  0  0
    0.0000   -1.1749   -2.5514 C   0  0  0  0  0  0  0  0  0  0  0  0
   -0.0000   -0.0138   -3.2241 O   0  0  0  0  0  0  0  0  0  0  0  0
   -0.0000   -0.1240   -4.6405 C   0  0  0  0  0  0  0  0  0  0  0  0
    0.0000   -0.9207   -1.0941 C   0  0  0  0  0  0  0  0  0  0  0  0
   -0.0000   -1.8980   -0.2161 N   0  0  0  0  0  0  0  0  0  0  0  0
   -0.0000   -1.3439    1.0046 O   0  0  0  0  0  0  0  0  0  0  0  0
    0.0000    0.0000    0.8937 C   0  0  0  0  0  0  0  0  0  0  0  0
    0.0000    0.8029    2.0810 C   0  0  0  0  0  0  0  0  0  0  0  0
    0.0000    0.4463    3.4082 C   0  0  0  0  0  0  0  0  0  0  0  0
    0.0000    1.6552    4.1339 C   0  0  0  0  0  0  0  0  0  0  0  0
    0.0000    2.6522    3.2035 C   0  0  0  0  0  0  0  0  0  0  0  0
    0.0000    2.1500    1.9619 O   0  0  0  0  0  0  0  0  0  0  0  0
    0.0000    0.3351   -0.4395 C   0  0  0  0  0  0  0  0  0  0  0  0
    0.8872   -0.6634   -4.9781 H   0  0  0  0  0  0  0  0  0  0  0  0
   -0.0000    0.8928   -5.0241 H   0  0  0  0  0  0  0  0  0  0  0  0
   -0.8872   -0.6634   -4.9781 H   0  0  0  0  0  0  0  0  0  0  0  0
    0.0000   -0.5515    3.7947 H   0  0  0  0  0  0  0  0  0  0  0  0
    0.0000    1.7675    5.1982 H   0  0  0  0  0  0  0  0  0  0  0  0
    0.0000    3.7198    3.3000 H   0  0  0  0  0  0  0  0  0  0  0  0
    0.0000    1.3077   -0.8806 H   0  0  0  0  0  0  0  0  0  0  0  0
  1  2  2  0  0  0  0
  2  5  1  0  0  0  0
  3  2  1  0  0  0  0
  4  3  1  0  0  0  0
  5 14  1  0  0  0  0
  5  6  2  0  0  0  0
  6  7  1  0  0  0  0
  8  7  1  0  0  0  0
  8  9  1  0  0  0  0
  9 10  2  0  0  0  0
 10 18  1  0  0  0  0
 10 11  1  0  0  0  0
 11 19  1  0  0  0  0
 12 20  1  0  0  0  0
 12 11  2  0  0  0  0
 13  9  1  0  0  0  0
 13 12  1  0  0  0  0
 14  8  2  0  0  0  0
 15  4  1  0  0  0  0
 16  4  1  0  0  0  0
 17  4  1  0  0  0  0
 21 14  1  0  0  0  0
M  END
$$$$
