Standard file
 OpenBabel12142210053D

 14 15  0  0  0  0  0  0  0  0999 V2000
    0.0000    0.0000    0.7848 C   0  0  0  0  0  0  0  0  0  0  0  0
    0.0000   -1.1998    1.4669 C   0  0  0  0  0  0  0  0  0  0  0  0
    0.0000   -2.2002    0.5923 O   0  0  0  0  0  0  0  0  0  0  0  0
   -0.0000   -1.7385   -0.6714 N   0  0  0  0  0  0  0  0  0  0  0  0
    0.0000   -0.4178   -0.5933 C   0  0  0  0  0  0  0  0  0  0  0  0
    0.0000    0.5428   -1.6270 C   0  0  0  0  0  0  0  0  0  0  0  0
    0.0000    1.8559   -1.2664 C   0  0  0  0  0  0  0  0  0  0  0  0
    0.0000    2.2686    0.0910 C   0  0  0  0  0  0  0  0  0  0  0  0
    0.0000    1.3714    1.1150 C   0  0  0  0  0  0  0  0  0  0  0  0
    0.0000   -1.4526    2.5082 H   0  0  0  0  0  0  0  0  0  0  0  0
   -0.0000    0.2230   -2.6559 H   0  0  0  0  0  0  0  0  0  0  0  0
   -0.0000    2.6209   -2.0289 H   0  0  0  0  0  0  0  0  0  0  0  0
    0.0000    3.3275    0.3026 H   0  0  0  0  0  0  0  0  0  0  0  0
    0.0000    1.6803    2.1489 H   0  0  0  0  0  0  0  0  0  0  0  0
  1  9  1  0  0  0  0
  1  2  2  0  0  0  0
  2 10  1  0  0  0  0
  3  2  1  0  0  0  0
  4  5  2  0  0  0  0
  4  3  1  0  0  0  0
  5  1  1  0  0  0  0
  6  7  2  0  0  0  0
  6  5  1  0  0  0  0
  7  8  1  0  0  0  0
  8 13  1  0  0  0  0
  8  9  2  0  0  0  0
  9 14  1  0  0  0  0
 11  6  1  0  0  0  0
 12  7  1  0  0  0  0
M  END
$$$$
