Standard file
 OpenBabel12142210053D

 18 19  0  0  0  0  0  0  0  0999 V2000
   -0.0001   -2.2614   -0.6014 F   0  0  0  0  0  0  0  0  0  0  0  0
   -0.0000   -1.0424   -1.1555 C   0  0  0  0  0  0  0  0  0  0  0  0
   -0.0000   -0.9639   -2.5358 C   0  0  0  0  0  0  0  0  0  0  0  0
    0.0000    0.2752   -3.1504 C   0  0  0  0  0  0  0  0  0  0  0  0
    0.0000    1.4261   -2.3815 C   0  0  0  0  0  0  0  0  0  0  0  0
    0.0000    1.3214   -1.0049 C   0  0  0  0  0  0  0  0  0  0  0  0
    0.0001    2.4619   -0.2916 F   0  0  0  0  0  0  0  0  0  0  0  0
    0.0000    0.0929   -0.3347 C   0  0  0  0  0  0  0  0  0  0  0  0
    0.0000    0.0000    1.1135 C   0  0  0  0  0  0  0  0  0  0  0  0
   -0.0000    0.9575    2.1041 C   0  0  0  0  0  0  0  0  0  0  0  0
    0.0000    0.2010    3.2914 C   0  0  0  0  0  0  0  0  0  0  0  0
    0.0000   -1.0775    3.0289 N   0  0  0  0  0  0  0  0  0  0  0  0
    0.0000   -1.2142    1.6947 O   0  0  0  0  0  0  0  0  0  0  0  0
   -0.0001   -1.8777   -3.1080 H   0  0  0  0  0  0  0  0  0  0  0  0
    0.0000    0.3450   -4.2263 H   0  0  0  0  0  0  0  0  0  0  0  0
    0.0001    2.4059   -2.8312 H   0  0  0  0  0  0  0  0  0  0  0  0
   -0.0000    2.0211    2.0075 H   0  0  0  0  0  0  0  0  0  0  0  0
    0.0000    0.5472    4.3049 H   0  0  0  0  0  0  0  0  0  0  0  0
  2  1  1  0  0  0  0
  2  8  1  0  0  0  0
  3  2  2  0  0  0  0
  4  3  1  0  0  0  0
  4  5  2  0  0  0  0
  5  6  1  0  0  0  0
  6  8  2  0  0  0  0
  6  7  1  0  0  0  0
  8  9  1  0  0  0  0
  9 13  1  0  0  0  0
  9 10  2  0  0  0  0
 10 11  1  0  0  0  0
 11 18  1  0  0  0  0
 12 11  2  0  0  0  0
 13 12  1  0  0  0  0
 14  3  1  0  0  0  0
 15  4  1  0  0  0  0
 16  5  1  0  0  0  0
 17 10  1  0  0  0  0
M  END
$$$$
