Standard file
     RDKit          3D

 83 84  0  0  0  0  0  0  0  0999 V2000
    3.5753   -1.8377    1.2928 C   0  0  0  0  0  0  0  0  0  0  0  0
    2.5249   -0.7283    1.2510 C   0  0  0  0  0  0  0  0  0  0  0  0
    3.0416    0.5232    1.9675 C   0  0  0  0  0  0  0  0  0  0  0  0
    1.2099   -1.1367    1.8697 C   0  0  0  0  0  0  0  0  0  0  0  0
    1.2062   -1.8614    3.0479 C   0  0  0  0  0  0  0  0  0  0  0  0
    0.0215   -2.1825    3.6919 C   0  0  0  0  0  0  0  0  0  0  0  0
    0.0100   -3.0242    4.9443 C   0  0  0  0  0  0  0  0  0  0  0  0
    0.5267   -4.4328    4.6442 C   0  0  0  0  0  0  0  0  0  0  0  0
    0.8308   -2.3708    6.0578 C   0  0  0  0  0  0  0  0  0  0  0  0
   -1.1550   -1.6932    3.1588 C   0  0  0  0  0  0  0  0  0  0  0  0
   -1.1982   -0.9327    1.9916 C   0  0  0  0  0  0  0  0  0  0  0  0
   -2.5772   -0.3632    1.6885 C   0  0  0  0  0  0  0  0  0  0  0  0
   -2.9310    0.0742    0.2675 C   0  0  0  0  0  0  0  0  0  0  0  0
   -2.7961    0.8240    2.6375 C   0  0  0  0  0  0  0  0  0  0  0  0
   -0.0000   -0.7073    1.3061 C   0  0  0  0  0  0  0  0  0  0  0  0
    0.0000    0.0000    0.0000 C   0  0  0  0  0  0  0  0  0  0  0  0
   -0.0000   -0.7073   -1.2079 C   0  0  0  0  0  0  0  0  0  0  0  0
    0.6154   -2.4648   -1.0778 P   0  0  0  0  0  0  0  0  0  0  0  0
   -0.9219   -3.5648   -1.3675 C   0  0  0  0  0  0  0  0  0  0  0  0
   -0.4756   -5.0145   -1.5626 C   0  0  0  0  0  0  0  0  0  0  0  0
   -1.8594   -3.1352   -2.4881 C   0  0  0  0  0  0  0  0  0  0  0  0
   -1.6653   -3.5106   -0.0290 C   0  0  0  0  0  0  0  0  0  0  0  0
    1.8307   -2.6937   -2.5624 C   0  0  0  0  0  0  0  0  0  0  0  0
    2.7838   -3.7875   -2.0581 C   0  0  0  0  0  0  0  0  0  0  0  0
    2.6435   -1.4043   -2.7000 C   0  0  0  0  0  0  0  0  0  0  0  0
    1.3227   -3.1119   -3.9402 C   0  0  0  0  0  0  0  0  0  0  0  0
   -0.2422    0.0158   -2.3910 C   0  0  0  0  0  0  0  0  0  0  0  0
   -0.4115   -0.7064   -3.5379 O   0  0  0  0  0  0  0  0  0  0  0  0
   -0.7368   -0.0315   -4.7246 C   0  0  0  0  0  0  0  0  0  0  0  0
   -0.3207    1.3982   -2.3596 C   0  0  0  0  0  0  0  0  0  0  0  0
   -0.1782    2.0968   -1.1710 C   0  0  0  0  0  0  0  0  0  0  0  0
   -0.0529    1.4023    0.0175 C   0  0  0  0  0  0  0  0  0  0  0  0
    0.0328    1.9899    1.2539 O   0  0  0  0  0  0  0  0  0  0  0  0
    0.0208    3.3918    1.3259 C   0  0  0  0  0  0  0  0  0  0  0  0
    3.9801   -1.9628    2.2941 H   0  0  0  0  0  0  0  0  0  0  0  0
    3.1356   -2.7799    0.9752 H   0  0  0  0  0  0  0  0  0  0  0  0
    4.4033   -1.5938    0.6295 H   0  0  0  0  0  0  0  0  0  0  0  0
    2.3394   -0.4677    0.2051 H   0  0  0  0  0  0  0  0  0  0  0  0
    2.2940    1.3104    1.9313 H   0  0  0  0  0  0  0  0  0  0  0  0
    3.2513    0.3006    3.0118 H   0  0  0  0  0  0  0  0  0  0  0  0
    3.9560    0.8808    1.4972 H   0  0  0  0  0  0  0  0  0  0  0  0
    2.1431   -2.1850    3.4713 H   0  0  0  0  0  0  0  0  0  0  0  0
   -1.0267   -3.1074    5.2904 H   0  0  0  0  0  0  0  0  0  0  0  0
    0.4791   -5.0530    5.5370 H   0  0  0  0  0  0  0  0  0  0  0  0
    1.5582   -4.3985    4.3024 H   0  0  0  0  0  0  0  0  0  0  0  0
   -0.0755   -4.8973    3.8662 H   0  0  0  0  0  0  0  0  0  0  0  0
    0.7460   -2.9466    6.9773 H   0  0  0  0  0  0  0  0  0  0  0  0
    0.4744   -1.3604    6.2466 H   0  0  0  0  0  0  0  0  0  0  0  0
    1.8814   -2.3179    5.7839 H   0  0  0  0  0  0  0  0  0  0  0  0
   -2.0840   -1.9055    3.6718 H   0  0  0  0  0  0  0  0  0  0  0  0
   -3.2959   -1.1463    1.9644 H   0  0  0  0  0  0  0  0  0  0  0  0
   -2.6396   -0.6619   -0.4752 H   0  0  0  0  0  0  0  0  0  0  0  0
   -2.4632    1.0188    0.0109 H   0  0  0  0  0  0  0  0  0  0  0  0
   -4.0110    0.2071    0.2043 H   0  0  0  0  0  0  0  0  0  0  0  0
   -2.0487    1.5887    2.4461 H   0  0  0  0  0  0  0  0  0  0  0  0
   -3.7860    1.2514    2.4883 H   0  0  0  0  0  0  0  0  0  0  0  0
   -2.7041    0.5130    3.6752 H   0  0  0  0  0  0  0  0  0  0  0  0
   -1.3414   -5.6737   -1.4925 H   0  0  0  0  0  0  0  0  0  0  0  0
    0.2283   -5.3010   -0.7825 H   0  0  0  0  0  0  0  0  0  0  0  0
   -0.0138   -5.1793   -2.5310 H   0  0  0  0  0  0  0  0  0  0  0  0
   -1.3745   -3.1896   -3.4567 H   0  0  0  0  0  0  0  0  0  0  0  0
   -2.2030   -2.1154   -2.3329 H   0  0  0  0  0  0  0  0  0  0  0  0
   -2.7322   -3.7899   -2.5029 H   0  0  0  0  0  0  0  0  0  0  0  0
   -2.0129   -2.5075    0.1863 H   0  0  0  0  0  0  0  0  0  0  0  0
   -1.0102   -3.8177    0.7852 H   0  0  0  0  0  0  0  0  0  0  0  0
   -2.5278   -4.1769   -0.0494 H   0  0  0  0  0  0  0  0  0  0  0  0
    3.2517   -3.4872   -1.1238 H   0  0  0  0  0  0  0  0  0  0  0  0
    2.2605   -4.7255   -1.8925 H   0  0  0  0  0  0  0  0  0  0  0  0
    3.5711   -3.9641   -2.7910 H   0  0  0  0  0  0  0  0  0  0  0  0
    3.5177   -1.5853   -3.3261 H   0  0  0  0  0  0  0  0  0  0  0  0
    2.0618   -0.6096   -3.1569 H   0  0  0  0  0  0  0  0  0  0  0  0
    2.9921   -1.0611   -1.7279 H   0  0  0  0  0  0  0  0  0  0  0  0
    0.8848   -4.1054   -3.9257 H   0  0  0  0  0  0  0  0  0  0  0  0
    0.5946   -2.4121   -4.3266 H   0  0  0  0  0  0  0  0  0  0  0  0
    2.1689   -3.1372   -4.6290 H   0  0  0  0  0  0  0  0  0  0  0  0
    0.0726    0.6302   -5.0538 H   0  0  0  0  0  0  0  0  0  0  0  0
   -0.8895   -0.8051   -5.4770 H   0  0  0  0  0  0  0  0  0  0  0  0
   -1.6596    0.5486   -4.6190 H   0  0  0  0  0  0  0  0  0  0  0  0
   -0.4738    1.9629   -3.2655 H   0  0  0  0  0  0  0  0  0  0  0  0
   -0.2014    3.1746   -1.1978 H   0  0  0  0  0  0  0  0  0  0  0  0
    0.8643    3.8326    0.7833 H   0  0  0  0  0  0  0  0  0  0  0  0
   -0.9153    3.8113    0.9403 H   0  0  0  0  0  0  0  0  0  0  0  0
    0.1115    3.6333    2.3844 H   0  0  0  0  0  0  0  0  0  0  0  0
  1 37  1  0
  1  2  1  0
  2 38  1  0
  2  3  1  0
  3 41  1  0
  3 39  1  0
  4  2  1  0
  4 15  1  0
  5  4  2  0
  6  5  1  0
  6 10  2  0
  7  9  1  0
  7  6  1  0
  8  7  1  0
  9 48  1  0
 10 11  1  0
 11 15  2  0
 11 12  1  0
 12 13  1  0
 12 14  1  0
 13 54  1  0
 13 53  1  0
 14 56  1  0
 14 55  1  0
 15 16  1  0
 16 32  1  0
 17 16  2  0
 17 27  1  0
 18 17  1  0
 19 21  1  0
 19 18  1  0
 20 19  1  0
 21 61  1  0
 21 62  1  0
 22 19  1  0
 22 64  1  0
 23 18  1  0
 23 25  1  0
 24 67  1  0
 24 23  1  0
 25 72  1  0
 25 71  1  0
 26 23  1  0
 26 74  1  0
 27 30  2  0
 28 27  1  0
 28 29  1  0
 29 76  1  0
 29 78  1  0
 30 31  1  0
 30 79  1  0
 31 80  1  0
 32 33  1  0
 32 31  2  0
 33 34  1  0
 34 83  1  0
 34 81  1  0
 34 82  1  0
 35  1  1  0
 36  1  1  0
 40  3  1  0
 42  5  1  0
 43  7  1  0
 44  8  1  0
 45  8  1  0
 46  8  1  0
 47  9  1  0
 49  9  1  0
 50 10  1  0
 51 12  1  0
 52 13  1  0
 57 14  1  0
 58 20  1  0
 59 20  1  0
 60 20  1  0
 63 21  1  0
 65 22  1  0
 66 22  1  0
 68 24  1  0
 69 24  1  0
 70 25  1  0
 73 26  1  0
 75 26  1  0
 77 29  1  0
M  END
$$$$
