Standard file
     RDKit          3D

 83 86  0  0  0  0  0  0  0  0999 V2000
    3.7243   -1.3625    1.6226 C   0  0  0  0  0  0  0  0  0  0  0  0
    2.5346   -0.4402    1.3445 C   0  0  0  0  0  0  0  0  0  0  0  0
    2.8520    0.9454    1.9191 C   0  0  0  0  0  0  0  0  0  0  0  0
    1.2341   -0.9450    1.9367 C   0  0  0  0  0  0  0  0  0  0  0  0
    1.2654   -1.5903    3.1640 C   0  0  0  0  0  0  0  0  0  0  0  0
    0.1078   -1.9943    3.8049 C   0  0  0  0  0  0  0  0  0  0  0  0
    0.1716   -2.7265    5.1227 C   0  0  0  0  0  0  0  0  0  0  0  0
   -0.5378   -1.9403    6.2270 C   0  0  0  0  0  0  0  0  0  0  0  0
   -0.4255   -4.1286    4.9867 C   0  0  0  0  0  0  0  0  0  0  0  0
   -1.1008   -1.6779    3.2102 C   0  0  0  0  0  0  0  0  0  0  0  0
   -1.1855   -1.0132    1.9930 C   0  0  0  0  0  0  0  0  0  0  0  0
   -2.5851   -0.6155    1.5632 C   0  0  0  0  0  0  0  0  0  0  0  0
   -2.7912    0.8993    1.6578 C   0  0  0  0  0  0  0  0  0  0  0  0
   -2.9997   -1.1267    0.1885 C   0  0  0  0  0  0  0  0  0  0  0  0
   -0.0000   -0.6938    1.3158 C   0  0  0  0  0  0  0  0  0  0  0  0
    0.0000    0.0000    0.0000 C   0  0  0  0  0  0  0  0  0  0  0  0
    0.0000   -0.6938   -1.2215 C   0  0  0  0  0  0  0  0  0  0  0  0
   -0.1705   -2.5311   -1.1583 P   0  0  0  0  0  0  0  0  0  0  0  0
    1.6426   -3.0435   -1.1933 C   0  0  0  0  0  0  0  0  0  0  0  0
    1.7298   -4.5757   -1.2704 C   0  0  0  0  0  0  0  0  0  0  0  0
    3.1158   -5.0383   -1.7343 C   0  0  0  0  0  0  0  0  0  0  0  0
    4.1951   -4.1020   -1.2038 C   0  0  0  0  0  0  0  0  0  0  0  0
    4.0458   -2.7039   -1.8187 C   0  0  0  0  0  0  0  0  0  0  0  0
    2.5906   -2.4048   -2.2048 C   0  0  0  0  0  0  0  0  0  0  0  0
   -0.8537   -3.0761   -2.8404 C   0  0  0  0  0  0  0  0  0  0  0  0
   -2.2361   -2.4571   -3.0578 C   0  0  0  0  0  0  0  0  0  0  0  0
   -3.0313   -3.2522   -4.1013 C   0  0  0  0  0  0  0  0  0  0  0  0
   -2.1250   -3.8025   -5.2098 C   0  0  0  0  0  0  0  0  0  0  0  0
   -0.9010   -2.9111   -5.3728 C   0  0  0  0  0  0  0  0  0  0  0  0
   -0.0125   -2.9920   -4.1258 C   0  0  0  0  0  0  0  0  0  0  0  0
    0.0172    0.0406   -2.4028 C   0  0  0  0  0  0  0  0  0  0  0  0
    0.0550    1.4233   -2.3950 C   0  0  0  0  0  0  0  0  0  0  0  0
    0.0637    2.1041   -1.1919 C   0  0  0  0  0  0  0  0  0  0  0  0
    0.0364    1.3898   -0.0079 C   0  0  0  0  0  0  0  0  0  0  0  0
    4.5671   -1.0757    0.9967 H   0  0  0  0  0  0  0  0  0  0  0  0
    3.4764   -2.4012    1.4193 H   0  0  0  0  0  0  0  0  0  0  0  0
    4.0477   -1.2833    2.6577 H   0  0  0  0  0  0  0  0  0  0  0  0
    2.4142   -0.3429    0.2606 H   0  0  0  0  0  0  0  0  0  0  0  0
    2.0902    1.6682    1.6445 H   0  0  0  0  0  0  0  0  0  0  0  0
    2.9058    0.8975    3.0051 H   0  0  0  0  0  0  0  0  0  0  0  0
    3.8097    1.2968    1.5392 H   0  0  0  0  0  0  0  0  0  0  0  0
    2.2135   -1.7804    3.6429 H   0  0  0  0  0  0  0  0  0  0  0  0
    1.2259   -2.8305    5.4040 H   0  0  0  0  0  0  0  0  0  0  0  0
   -0.4172   -2.4431    7.1844 H   0  0  0  0  0  0  0  0  0  0  0  0
   -0.1212   -0.9383    6.3065 H   0  0  0  0  0  0  0  0  0  0  0  0
   -1.6012   -1.8535    6.0184 H   0  0  0  0  0  0  0  0  0  0  0  0
    0.0928   -4.6859    4.2094 H   0  0  0  0  0  0  0  0  0  0  0  0
   -1.4787   -4.0740    4.7225 H   0  0  0  0  0  0  0  0  0  0  0  0
   -0.3331   -4.6717    5.9249 H   0  0  0  0  0  0  0  0  0  0  0  0
   -2.0182   -1.9420    3.7165 H   0  0  0  0  0  0  0  0  0  0  0  0
   -3.2666   -1.0747    2.2896 H   0  0  0  0  0  0  0  0  0  0  0  0
   -2.4226    1.2758    2.6100 H   0  0  0  0  0  0  0  0  0  0  0  0
   -3.8517    1.1319    1.5821 H   0  0  0  0  0  0  0  0  0  0  0  0
   -2.2730    1.4115    0.8525 H   0  0  0  0  0  0  0  0  0  0  0  0
   -2.4731   -0.5992   -0.6008 H   0  0  0  0  0  0  0  0  0  0  0  0
   -4.0686   -0.9757    0.0459 H   0  0  0  0  0  0  0  0  0  0  0  0
   -2.7835   -2.1902    0.1119 H   0  0  0  0  0  0  0  0  0  0  0  0
    1.9745   -2.7282   -0.1966 H   0  0  0  0  0  0  0  0  0  0  0  0
    1.5090   -4.9895   -0.2841 H   0  0  0  0  0  0  0  0  0  0  0  0
    0.9792   -4.9682   -1.9591 H   0  0  0  0  0  0  0  0  0  0  0  0
    3.2965   -6.0578   -1.3878 H   0  0  0  0  0  0  0  0  0  0  0  0
    3.1634   -5.0520   -2.8251 H   0  0  0  0  0  0  0  0  0  0  0  0
    5.1853   -4.5023   -1.4292 H   0  0  0  0  0  0  0  0  0  0  0  0
    4.1066   -4.0483   -0.1172 H   0  0  0  0  0  0  0  0  0  0  0  0
    4.4045   -1.9566   -1.1109 H   0  0  0  0  0  0  0  0  0  0  0  0
    4.6657   -2.6264   -2.7149 H   0  0  0  0  0  0  0  0  0  0  0  0
    2.4368   -1.3243   -2.2502 H   0  0  0  0  0  0  0  0  0  0  0  0
    2.4057   -2.8140   -3.1949 H   0  0  0  0  0  0  0  0  0  0  0  0
   -1.0372   -4.1424   -2.6348 H   0  0  0  0  0  0  0  0  0  0  0  0
   -2.7897   -2.4531   -2.1190 H   0  0  0  0  0  0  0  0  0  0  0  0
   -2.1322   -1.4188   -3.3754 H   0  0  0  0  0  0  0  0  0  0  0  0
   -3.7940   -2.6009   -4.5331 H   0  0  0  0  0  0  0  0  0  0  0  0
   -3.5490   -4.0808   -3.6142 H   0  0  0  0  0  0  0  0  0  0  0  0
   -2.6777   -3.8646   -6.1488 H   0  0  0  0  0  0  0  0  0  0  0  0
   -1.7923   -4.8122   -4.9592 H   0  0  0  0  0  0  0  0  0  0  0  0
   -1.2292   -1.8831   -5.5405 H   0  0  0  0  0  0  0  0  0  0  0  0
   -0.3216   -3.2158   -6.2471 H   0  0  0  0  0  0  0  0  0  0  0  0
    0.6517   -2.1303   -4.1223 H   0  0  0  0  0  0  0  0  0  0  0  0
    0.6124   -3.8855   -4.1963 H   0  0  0  0  0  0  0  0  0  0  0  0
   -0.0033   -0.4656   -3.3529 H   0  0  0  0  0  0  0  0  0  0  0  0
    0.0736    1.9658   -3.3296 H   0  0  0  0  0  0  0  0  0  0  0  0
    0.0866    3.1842   -1.1737 H   0  0  0  0  0  0  0  0  0  0  0  0
    0.0291    1.9183    0.9352 H   0  0  0  0  0  0  0  0  0  0  0  0
  1 35  1  0
  1  2  1  0
  2  3  1  0
  2 38  1  0
  3 41  1  0
  3 39  1  0
  4  2  1  0
  4 15  1  0
  5  4  2  0
  6  5  1  0
  6 10  2  0
  7  6  1  0
  8  7  1  0
  8 46  1  0
  8 45  1  0
  9 47  1  0
  9 48  1  0
  9  7  1  0
 10 11  1  0
 11 15  2  0
 11 12  1  0
 12 14  1  0
 12 13  1  0
 13 53  1  0
 13 54  1  0
 14 56  1  0
 14 55  1  0
 15 16  1  0
 16 17  2  0
 16 34  1  0
 17 31  1  0
 18 25  1  0
 18 17  1  0
 19 18  1  0
 19 24  1  0
 20 60  1  0
 20 19  1  0
 21 22  1  0
 21 20  1  0
 21 62  1  0
 22 23  1  0
 23 66  1  0
 23 24  1  0
 24 68  1  0
 24 67  1  0
 25 26  1  0
 25 30  1  0
 26 27  1  0
 26 71  1  0
 27 28  1  0
 27 72  1  0
 28 29  1  0
 28 74  1  0
 29 77  1  0
 29 76  1  0
 30 78  1  0
 30 29  1  0
 31 80  1  0
 31 32  2  0
 32 81  1  0
 33 32  1  0
 33 82  1  0
 34 33  2  0
 36  1  1  0
 37  1  1  0
 40  3  1  0
 42  5  1  0
 43  7  1  0
 44  8  1  0
 49  9  1  0
 50 10  1  0
 51 12  1  0
 52 13  1  0
 57 14  1  0
 58 19  1  0
 59 20  1  0
 61 21  1  0
 63 22  1  0
 64 22  1  0
 65 23  1  0
 69 25  1  0
 70 26  1  0
 73 27  1  0
 75 28  1  0
 79 30  1  0
 83 34  1  0
M  END
$$$$
