Standard file
 OpenBabel12142210053D

 56 55  0  0  0  0  0  0  0  0999 V2000
   -0.3544   -2.6742    1.7051 C   0  0  0  0  0  0  0  0  0  0  0  0
    0.5792   -1.5689    1.6696 N   0  0  0  0  0  0  0  0  0  0  0  0
    1.7919   -1.8864    0.9442 C   0  0  0  0  0  0  0  0  0  0  0  0
    0.0000    0.0000    1.4031 P   0  0  0  0  0  4  0  0  0  0  0  0
    1.2166    0.8773    2.1636 N   0  0  0  0  0  0  0  0  0  0  0  0
    2.0171    0.4517    3.2862 C   0  0  0  0  0  0  0  0  0  0  0  0
    1.1546    2.3115    1.9986 C   0  0  0  0  0  0  0  0  0  0  0  0
   -1.3880    0.1324    2.3232 N   0  0  0  0  0  0  0  0  0  0  0  0
   -2.6806    0.4485    1.7674 C   0  0  0  0  0  0  0  0  0  0  0  0
   -1.3655   -0.1119    3.7456 C   0  0  0  0  0  0  0  0  0  0  0  0
   -0.2975    0.6085   -0.0052 N   0  0  0  0  0  2  0  0  0  0  0  0
   -0.0758    0.2326   -1.6034 P   0  0  0  0  0  4  0  0  0  0  0  0
   -0.3231    1.7643   -2.2810 N   0  0  0  0  0  0  0  0  0  0  0  0
   -0.1154    1.7745   -3.7138 C   0  0  0  0  0  0  0  0  0  0  0  0
   -1.5488    2.4398   -1.9124 C   0  0  0  0  0  0  0  0  0  0  0  0
    1.5979    0.0164   -1.7838 N   0  0  0  0  0  0  0  0  0  0  0  0
    2.1197   -0.9313   -2.7317 C   0  0  0  0  0  0  0  0  0  0  0  0
    2.5263    1.0205   -1.3361 C   0  0  0  0  0  0  0  0  0  0  0  0
   -0.9659   -0.7947   -2.3669 N   0  0  0  0  0  2  0  0  0  0  0  0
   -1.3049   -2.1537   -2.0415 C   0  0  0  0  0  0  0  0  0  0  0  0
   -2.5566   -2.2259   -1.1668 C   0  0  0  0  0  0  0  0  0  0  0  0
    0.0478   -3.4549    2.3575 H   0  0  0  0  0  0  0  0  0  0  0  0
   -0.5244   -3.1067    0.7137 H   0  0  0  0  0  0  0  0  0  0  0  0
   -1.3081   -2.3382    2.1051 H   0  0  0  0  0  0  0  0  0  0  0  0
    2.4144   -0.9958    0.8852 H   0  0  0  0  0  0  0  0  0  0  0  0
    2.3340   -2.6773    1.4699 H   0  0  0  0  0  0  0  0  0  0  0  0
    1.5764   -2.2255   -0.0757 H   0  0  0  0  0  0  0  0  0  0  0  0
    3.0636    0.7264    3.1156 H   0  0  0  0  0  0  0  0  0  0  0  0
    1.9528   -0.6273    3.3991 H   0  0  0  0  0  0  0  0  0  0  0  0
    1.6915    0.9308    4.2180 H   0  0  0  0  0  0  0  0  0  0  0  0
    0.5003    2.5320    1.1563 H   0  0  0  0  0  0  0  0  0  0  0  0
    2.1521    2.7129    1.7963 H   0  0  0  0  0  0  0  0  0  0  0  0
    0.7603    2.8058    2.8947 H   0  0  0  0  0  0  0  0  0  0  0  0
   -3.0826    1.3598    2.2210 H   0  0  0  0  0  0  0  0  0  0  0  0
   -3.3948   -0.3655    1.9366 H   0  0  0  0  0  0  0  0  0  0  0  0
   -2.5641    0.6052    0.6970 H   0  0  0  0  0  0  0  0  0  0  0  0
   -2.0988   -0.8779    4.0219 H   0  0  0  0  0  0  0  0  0  0  0  0
   -1.6061    0.8007    4.3027 H   0  0  0  0  0  0  0  0  0  0  0  0
   -0.3769   -0.4577    4.0370 H   0  0  0  0  0  0  0  0  0  0  0  0
    0.7907    1.2188   -3.9459 H   0  0  0  0  0  0  0  0  0  0  0  0
   -0.9485    1.3118   -4.2544 H   0  0  0  0  0  0  0  0  0  0  0  0
    0.0000    2.8074   -4.0546 H   0  0  0  0  0  0  0  0  0  0  0  0
   -2.4252    2.0177   -2.4183 H   0  0  0  0  0  0  0  0  0  0  0  0
   -1.4664    3.4975   -2.1783 H   0  0  0  0  0  0  0  0  0  0  0  0
   -1.6852    2.3515   -0.8373 H   0  0  0  0  0  0  0  0  0  0  0  0
    2.6120   -0.4354   -3.5786 H   0  0  0  0  0  0  0  0  0  0  0  0
    2.8555   -1.5934   -2.2577 H   0  0  0  0  0  0  0  0  0  0  0  0
    1.2903   -1.5271   -3.1112 H   0  0  0  0  0  0  0  0  0  0  0  0
    3.3604    0.5588   -0.7944 H   0  0  0  0  0  0  0  0  0  0  0  0
    2.9399    1.5929   -2.1755 H   0  0  0  0  0  0  0  0  0  0  0  0
    1.9983    1.7019   -0.6747 H   0  0  0  0  0  0  0  0  0  0  0  0
   -0.4885   -2.7041   -1.5485 H   0  0  0  0  0  0  0  0  0  0  0  0
   -1.5078   -2.6657   -2.9926 H   0  0  0  0  0  0  0  0  0  0  0  0
   -2.3746   -1.7078   -0.2279 H   0  0  0  0  0  0  0  0  0  0  0  0
   -3.3825   -1.7331   -1.6734 H   0  0  0  0  0  0  0  0  0  0  0  0
   -2.8283   -3.2606   -0.9624 H   0  0  0  0  0  0  0  0  0  0  0  0
  1 24  1  0  0  0  0
  1 22  1  0  0  0  0
  2  1  1  0  0  0  0
  3 26  1  0  0  0  0
  3  2  1  0  0  0  0
  4  2  1  0  0  0  0
  4  5  1  0  0  0  0
  4  8  1  0  0  0  0
  5  6  1  0  0  0  0
  6 29  1  0  0  0  0
  6 30  1  0  0  0  0
  7  5  1  0  0  0  0
  7 33  1  0  0  0  0
  8 10  1  0  0  0  0
  9 35  1  0  0  0  0
  9 34  1  0  0  0  0
  9  8  1  0  0  0  0
 10 37  1  0  0  0  0
 10 39  1  0  0  0  0
 10 38  1  0  0  0  0
 11  4  1  0  0  0  0
 12 11  1  0  0  0  0
 13 15  1  0  0  0  0
 13 12  1  0  0  0  0
 14 13  1  0  0  0  0
 15 45  1  0  0  0  0
 16 12  1  0  0  0  0
 16 18  1  0  0  0  0
 17 47  1  0  0  0  0
 17 16  1  0  0  0  0
 18 49  1  0  0  0  0
 18 51  1  0  0  0  0
 19 20  1  0  0  0  0
 19 12  1  0  0  0  0
 20 52  1  0  0  0  0
 20 21  1  0  0  0  0
 21 56  1  0  0  0  0
 21 54  1  0  0  0  0
 23  1  1  0  0  0  0
 25  3  1  0  0  0  0
 27  3  1  0  0  0  0
 28  6  1  0  0  0  0
 31  7  1  0  0  0  0
 32  7  1  0  0  0  0
 36  9  1  0  0  0  0
 40 14  1  0  0  0  0
 41 14  1  0  0  0  0
 42 14  1  0  0  0  0
 43 15  1  0  0  0  0
 44 15  1  0  0  0  0
 46 17  1  0  0  0  0
 48 17  1  0  0  0  0
 50 18  1  0  0  0  0
 53 20  1  0  0  0  0
 55 21  1  0  0  0  0
M  END
$$$$
