Standard file
 OpenBabel12142210053D

 20 20  0  0  0  0  0  0  0  0999 V2000
    0.0000   -2.8954   -0.5938 C   0  0  0  0  0  0  0  0  0  0  0  0
    0.0000   -1.5337   -1.1654 C   0  0  0  0  0  0  0  0  0  0  0  0
   -0.0000   -0.2878   -0.5677 C   0  0  0  0  0  0  0  0  0  0  0  0
    0.0000    0.0000    0.8673 C   0  0  0  0  0  0  0  0  0  0  0  0
    0.0000    1.3145    1.1068 O   0  0  0  0  0  0  0  0  0  0  0  0
    0.0000    1.7047    2.4807 C   0  0  0  0  0  0  0  0  0  0  0  0
   -0.0000    3.2198    2.5476 C   0  0  0  0  0  0  0  0  0  0  0  0
    0.0000   -0.8455    1.7305 O   0  0  0  0  0  0  0  0  0  0  0  0
   -0.0000    0.6060   -1.6715 C   0  0  0  0  0  0  0  0  0  0  0  0
   -0.0000   -0.0484   -2.7932 N   0  0  0  0  0  0  0  0  0  0  0  0
    0.0000   -1.3726   -2.4877 O   0  0  0  0  0  0  0  0  0  0  0  0
   -0.8755   -3.0286    0.0392 H   0  0  0  0  0  0  0  0  0  0  0  0
    0.0000   -3.6326   -1.3915 H   0  0  0  0  0  0  0  0  0  0  0  0
    0.8755   -3.0285    0.0392 H   0  0  0  0  0  0  0  0  0  0  0  0
   -0.8865    1.2821    2.9672 H   0  0  0  0  0  0  0  0  0  0  0  0
    0.8865    1.2821    2.9672 H   0  0  0  0  0  0  0  0  0  0  0  0
    0.8827    3.6166    2.0535 H   0  0  0  0  0  0  0  0  0  0  0  0
   -0.8827    3.6166    2.0535 H   0  0  0  0  0  0  0  0  0  0  0  0
    0.0000    3.5384    3.5858 H   0  0  0  0  0  0  0  0  0  0  0  0
   -0.0000    1.6761   -1.6560 H   0  0  0  0  0  0  0  0  0  0  0  0
  1 12  1  0  0  0  0
  1 14  1  0  0  0  0
  2  1  1  0  0  0  0
  2  3  2  0  0  0  0
  3  4  1  0  0  0  0
  4  5  1  0  0  0  0
  4  8  2  0  0  0  0
  5  6  1  0  0  0  0
  6  7  1  0  0  0  0
  6 16  1  0  0  0  0
  6 15  1  0  0  0  0
  7 19  1  0  0  0  0
  9 20  1  0  0  0  0
  9  3  1  0  0  0  0
 10 11  1  0  0  0  0
 10  9  2  0  0  0  0
 11  2  1  0  0  0  0
 13  1  1  0  0  0  0
 17  7  1  0  0  0  0
 18  7  1  0  0  0  0
M  END
$$$$
