Standard file
 OpenBabel12142210053D

 14 14  0  0  0  0  0  0  0  0999 V2000
   -0.0016    0.0011    2.5819 C   0  0  0  0  0  0  0  0  0  0  0  0
    0.0000    0.0000    1.0985 C   0  0  0  0  0  0  0  0  0  0  0  0
   -0.8294    0.5654    0.1730 C   0  0  0  0  0  0  0  0  0  0  0  0
   -0.2699    0.1840   -1.0748 C   0  0  0  0  0  0  0  0  0  0  0  0
   -0.7654    0.5217   -2.4333 C   0  0  0  0  0  0  0  0  0  0  0  0
    0.7989   -0.5446   -0.8812 N   0  0  0  0  0  0  0  0  0  0  0  0
    0.9753   -0.6649    0.4573 O   0  0  0  0  0  0  0  0  0  0  0  0
   -0.0681   -1.0191    2.9566 H   0  0  0  0  0  0  0  0  0  0  0  0
   -0.8457    0.5764    2.9498 H   0  0  0  0  0  0  0  0  0  0  0  0
    0.9237    0.4359    2.9566 H   0  0  0  0  0  0  0  0  0  0  0  0
   -1.7020    1.1602    0.3434 H   0  0  0  0  0  0  0  0  0  0  0  0
   -1.6615    1.1326   -2.3657 H   0  0  0  0  0  0  0  0  0  0  0  0
    0.0000    1.0640   -2.9847 H   0  0  0  0  0  0  0  0  0  0  0  0
   -0.9904   -0.3889   -2.9847 H   0  0  0  0  0  0  0  0  0  0  0  0
  1  9  1  0  0  0  0
  1 10  1  0  0  0  0
  1  8  1  0  0  0  0
  2  1  1  0  0  0  0
  3 11  1  0  0  0  0
  3  2  2  0  0  0  0
  4  6  2  0  0  0  0
  4  3  1  0  0  0  0
  5 12  1  0  0  0  0
  5  4  1  0  0  0  0
  6  7  1  0  0  0  0
  7  2  1  0  0  0  0
 13  5  1  0  0  0  0
 14  5  1  0  0  0  0
M  END
$$$$
