Standard file
 OpenBabel12142210053D

 19 20  0  0  0  0  0  0  0  0999 V2000
   -0.7360    0.3921   -3.7795 C   0  0  0  0  0  0  0  0  0  0  0  0
   -0.2946    0.1569   -2.3838 C   0  0  0  0  0  0  0  0  0  0  0  0
   -0.8592    0.4577   -1.1792 C   0  0  0  0  0  0  0  0  0  0  0  0
    0.0801   -0.0427   -0.2329 C   0  0  0  0  0  0  0  0  0  0  0  0
    0.0000    0.0000    1.1355 N   0  0  0  0  0  0  0  0  0  0  0  0
    0.9456   -0.5038    1.9895 C   0  0  0  0  0  0  0  0  0  0  0  0
    0.5310   -0.2829    3.2672 C   0  0  0  0  0  0  0  0  0  0  0  0
   -0.7176    0.3823    3.1964 C   0  0  0  0  0  0  0  0  0  0  0  0
   -1.0168    0.5417    1.8774 C   0  0  0  0  0  0  0  0  0  0  0  0
    1.1041   -0.5882   -0.8500 N   0  0  0  0  0  0  0  0  0  0  0  0
    0.8765   -0.4669   -2.1803 O   0  0  0  0  0  0  0  0  0  0  0  0
   -1.6941    0.9025   -3.7841 H   0  0  0  0  0  0  0  0  0  0  0  0
   -0.8277   -0.5564   -4.3061 H   0  0  0  0  0  0  0  0  0  0  0  0
    0.0000    0.9973   -4.3061 H   0  0  0  0  0  0  0  0  0  0  0  0
   -1.7878    0.9524   -0.9933 H   0  0  0  0  0  0  0  0  0  0  0  0
    1.8246   -0.9720    1.5966 H   0  0  0  0  0  0  0  0  0  0  0  0
    1.0510   -0.5599    4.1626 H   0  0  0  0  0  0  0  0  0  0  0  0
   -1.3158    0.7010    4.0269 H   0  0  0  0  0  0  0  0  0  0  0  0
   -1.8690    0.9957    1.4131 H   0  0  0  0  0  0  0  0  0  0  0  0
  1  2  1  0  0  0  0
  2 11  1  0  0  0  0
  2  3  2  0  0  0  0
  3 15  1  0  0  0  0
  3  4  1  0  0  0  0
  4  5  1  0  0  0  0
  5  9  1  0  0  0  0
  5  6  1  0  0  0  0
  6  7  2  0  0  0  0
  7 17  1  0  0  0  0
  8  7  1  0  0  0  0
  8 18  1  0  0  0  0
  9  8  2  0  0  0  0
 10  4  2  0  0  0  0
 11 10  1  0  0  0  0
 12  1  1  0  0  0  0
 13  1  1  0  0  0  0
 14  1  1  0  0  0  0
 16  6  1  0  0  0  0
 19  9  1  0  0  0  0
M  END
$$$$
