Standard file
 OpenBabel12142210053D

 18 19  0  0  0  0  0  0  0  0999 V2000
    0.0000    0.0000    0.9854 C   0  0  0  0  0  0  0  0  0  0  0  0
    0.0000    0.1420   -0.4580 C   0  0  0  0  0  0  0  0  0  0  0  0
   -0.0000   -0.9943   -1.2686 C   0  0  0  0  0  0  0  0  0  0  0  0
   -0.0000   -0.8668   -2.6439 C   0  0  0  0  0  0  0  0  0  0  0  0
    0.0000    0.3901   -3.2273 C   0  0  0  0  0  0  0  0  0  0  0  0
    0.0000    1.5225   -2.4284 C   0  0  0  0  0  0  0  0  0  0  0  0
    0.0000    1.4043   -1.0519 C   0  0  0  0  0  0  0  0  0  0  0  0
   -0.0000    0.9199    2.0095 C   0  0  0  0  0  0  0  0  0  0  0  0
    0.0000    0.1253    3.1720 C   0  0  0  0  0  0  0  0  0  0  0  0
   -0.0000   -1.1439    2.8696 N   0  0  0  0  0  0  0  0  0  0  0  0
    0.0000   -1.2337    1.5239 O   0  0  0  0  0  0  0  0  0  0  0  0
   -0.0000   -1.9692   -0.8058 H   0  0  0  0  0  0  0  0  0  0  0  0
   -0.0000   -1.7508   -3.2643 H   0  0  0  0  0  0  0  0  0  0  0  0
    0.0000    0.4878   -4.3027 H   0  0  0  0  0  0  0  0  0  0  0  0
    0.0000    2.5027   -2.8821 H   0  0  0  0  0  0  0  0  0  0  0  0
    0.0000    2.2890   -0.4342 H   0  0  0  0  0  0  0  0  0  0  0  0
   -0.0000    1.9871    1.9498 H   0  0  0  0  0  0  0  0  0  0  0  0
    0.0000    0.4367    4.1971 H   0  0  0  0  0  0  0  0  0  0  0  0
  1 11  1  0  0  0  0
  1  8  2  0  0  0  0
  2  1  1  0  0  0  0
  3 12  1  0  0  0  0
  3  2  2  0  0  0  0
  4  3  1  0  0  0  0
  5  4  2  0  0  0  0
  5  6  1  0  0  0  0
  6  7  2  0  0  0  0
  7  2  1  0  0  0  0
  7 16  1  0  0  0  0
  8  9  1  0  0  0  0
  9 18  1  0  0  0  0
 10  9  2  0  0  0  0
 11 10  1  0  0  0  0
 13  4  1  0  0  0  0
 14  5  1  0  0  0  0
 15  6  1  0  0  0  0
 17  8  1  0  0  0  0
M  END
$$$$
