Standard file
 OpenBabel12142210053D

 21 22  0  0  0  0  0  0  0  0999 V2000
   -0.7737    0.5489   -4.1048 C   0  0  0  0  0  0  0  0  0  0  0  0
   -0.2806    0.1990   -2.7486 C   0  0  0  0  0  0  0  0  0  0  0  0
    0.7770   -0.5512   -2.5620 N   0  0  0  0  0  0  0  0  0  0  0  0
    0.9592   -0.6805   -1.2293 O   0  0  0  0  0  0  0  0  0  0  0  0
   -0.0002    0.0001   -0.5731 C   0  0  0  0  0  0  0  0  0  0  0  0
    0.0000    0.0000    0.8771 C   0  0  0  0  0  0  0  0  0  0  0  0
    0.9868   -0.7000    1.5730 C   0  0  0  0  0  0  0  0  0  0  0  0
    0.9929   -0.7044    2.9541 C   0  0  0  0  0  0  0  0  0  0  0  0
    0.0191   -0.0136    3.6575 C   0  0  0  0  0  0  0  0  0  0  0  0
   -0.9636    0.6836    2.9730 C   0  0  0  0  0  0  0  0  0  0  0  0
   -0.9772    0.6932    1.5915 C   0  0  0  0  0  0  0  0  0  0  0  0
   -0.8262    0.5861   -1.5021 C   0  0  0  0  0  0  0  0  0  0  0  0
    0.0000    1.0779   -4.6575 H   0  0  0  0  0  0  0  0  0  0  0  0
   -1.0173   -0.3562   -4.6574 H   0  0  0  0  0  0  0  0  0  0  0  0
   -1.6581    1.1763   -4.0336 H   0  0  0  0  0  0  0  0  0  0  0  0
    1.7408   -1.2349    1.0164 H   0  0  0  0  0  0  0  0  0  0  0  0
    1.7597   -1.2483    3.4855 H   0  0  0  0  0  0  0  0  0  0  0  0
    0.0254   -0.0180    4.7374 H   0  0  0  0  0  0  0  0  0  0  0  0
   -1.7230    1.2223    3.5204 H   0  0  0  0  0  0  0  0  0  0  0  0
   -1.7443    1.2374    1.0630 H   0  0  0  0  0  0  0  0  0  0  0  0
   -1.6880    1.1975   -1.3373 H   0  0  0  0  0  0  0  0  0  0  0  0
  1 15  1  0  0  0  0
  1  2  1  0  0  0  0
  2  3  2  0  0  0  0
  2 12  1  0  0  0  0
  3  4  1  0  0  0  0
  4  5  1  0  0  0  0
  5  6  1  0  0  0  0
  6  7  2  0  0  0  0
  6 11  1  0  0  0  0
  7  8  1  0  0  0  0
  8 17  1  0  0  0  0
  8  9  2  0  0  0  0
  9 18  1  0  0  0  0
 10 19  1  0  0  0  0
 10  9  1  0  0  0  0
 11 10  2  0  0  0  0
 12 21  1  0  0  0  0
 12  5  2  0  0  0  0
 13  1  1  0  0  0  0
 14  1  1  0  0  0  0
 16  7  1  0  0  0  0
 20 11  1  0  0  0  0
M  END
$$$$
