Standard file
 OpenBabel12142210053D

 20 20  0  0  0  0  0  0  0  0999 V2000
    0.0000   -2.6464   -3.1712 C   0  0  0  0  0  0  0  0  0  0  0  0
    0.0000   -1.5967   -2.1229 C   0  0  0  0  0  0  0  0  0  0  0  0
   -0.0000   -0.3177   -2.4120 N   0  0  0  0  0  0  0  0  0  0  0  0
   -0.0000    0.3744   -1.2600 O   0  0  0  0  0  0  0  0  0  0  0  0
    0.0000   -0.4868   -0.2293 C   0  0  0  0  0  0  0  0  0  0  0  0
    0.0000    0.0000    1.1630 C   0  0  0  0  0  0  0  0  0  0  0  0
   -0.0000    1.3260    1.2204 O   0  0  0  0  0  0  0  0  0  0  0  0
   -0.0000    1.9082    2.5261 C   0  0  0  0  0  0  0  0  0  0  0  0
   -0.0000    3.4166    2.3708 C   0  0  0  0  0  0  0  0  0  0  0  0
    0.0000   -0.7345    2.1199 O   0  0  0  0  0  0  0  0  0  0  0  0
    0.0000   -1.7695   -0.7171 C   0  0  0  0  0  0  0  0  0  0  0  0
    0.8787   -2.5399   -3.8037 H   0  0  0  0  0  0  0  0  0  0  0  0
   -0.8787   -2.5399   -3.8037 H   0  0  0  0  0  0  0  0  0  0  0  0
    0.0000   -3.6327   -2.7162 H   0  0  0  0  0  0  0  0  0  0  0  0
    0.8866    1.5589    3.0672 H   0  0  0  0  0  0  0  0  0  0  0  0
   -0.8866    1.5589    3.0672 H   0  0  0  0  0  0  0  0  0  0  0  0
    0.8820    3.7353    1.8224 H   0  0  0  0  0  0  0  0  0  0  0  0
    0.0000    3.8847    3.3507 H   0  0  0  0  0  0  0  0  0  0  0  0
   -0.8820    3.7353    1.8224 H   0  0  0  0  0  0  0  0  0  0  0  0
    0.0000   -2.6791   -0.1556 H   0  0  0  0  0  0  0  0  0  0  0  0
  1 14  1  0  0  0  0
  1  2  1  0  0  0  0
  2 11  1  0  0  0  0
  3  2  2  0  0  0  0
  3  4  1  0  0  0  0
  4  5  1  0  0  0  0
  5  6  1  0  0  0  0
  6  7  1  0  0  0  0
  6 10  2  0  0  0  0
  7  8  1  0  0  0  0
  8 16  1  0  0  0  0
  8 15  1  0  0  0  0
  9  8  1  0  0  0  0
  9 18  1  0  0  0  0
 11  5  2  0  0  0  0
 11 20  1  0  0  0  0
 12  1  1  0  0  0  0
 13  1  1  0  0  0  0
 17  9  1  0  0  0  0
 19  9  1  0  0  0  0
M  END
$$$$
