Standard file
 OpenBabel12142210053D

 18 18  0  0  0  0  0  0  0  0999 V2000
    0.4700   -2.2860   -0.4133 Br  0  0  0  0  0  0  0  0  0  0  0  0
   -0.0041   -0.4693   -0.0700 C   0  0  0  0  0  0  0  0  0  0  0  0
   -0.3477    0.3549   -1.1268 C   0  0  0  0  0  0  0  0  0  0  0  0
   -0.6916    1.6691   -0.8685 C   0  0  0  0  0  0  0  0  0  0  0  0
   -0.6986    2.1667    0.4290 C   0  0  0  0  0  0  0  0  0  0  0  0
   -1.0286    3.6069    0.6944 C   0  0  0  0  0  0  0  0  0  0  0  0
    0.2383    4.4631    0.6365 C   0  0  0  0  0  0  0  0  0  0  0  0
   -0.3467    1.3171    1.4710 C   0  0  0  0  0  0  0  0  0  0  0  0
    0.0000    0.0000    1.2315 C   0  0  0  0  0  0  0  0  0  0  0  0
   -0.3472   -0.0259   -2.1367 H   0  0  0  0  0  0  0  0  0  0  0  0
   -0.9620    2.3158   -1.6905 H   0  0  0  0  0  0  0  0  0  0  0  0
   -1.4855    3.7062    1.6809 H   0  0  0  0  0  0  0  0  0  0  0  0
   -1.7408    3.9667   -0.0506 H   0  0  0  0  0  0  0  0  0  0  0  0
    0.7023    4.3874   -0.3443 H   0  0  0  0  0  0  0  0  0  0  0  0
    0.0000    5.5064    0.8286 H   0  0  0  0  0  0  0  0  0  0  0  0
    0.9567    4.1278    1.3811 H   0  0  0  0  0  0  0  0  0  0  0  0
   -0.3463    1.6874    2.4858 H   0  0  0  0  0  0  0  0  0  0  0  0
    0.2695   -0.6553    2.0456 H   0  0  0  0  0  0  0  0  0  0  0  0
  1  2  1  0  0  0  0
  2  9  1  0  0  0  0
  3  4  1  0  0  0  0
  3  2  2  0  0  0  0
  4  5  2  0  0  0  0
  5  6  1  0  0  0  0
  5  8  1  0  0  0  0
  6 12  1  0  0  0  0
  7  6  1  0  0  0  0
  7 15  1  0  0  0  0
  7 16  1  0  0  0  0
  8 17  1  0  0  0  0
  9  8  2  0  0  0  0
  9 18  1  0  0  0  0
 10  3  1  0  0  0  0
 11  4  1  0  0  0  0
 13  6  1  0  0  0  0
 14  7  1  0  0  0  0
M  END
$$$$
