Standard file
 OpenBabel12142210053D

 11 11  0  0  0  0  0  0  0  0999 V2000
    0.0000    0.0000    1.3185 I   0  0  0  0  0  0  0  0  0  0  0  0
    0.0000   -0.0267   -0.7964 C   0  0  0  0  0  0  0  0  0  0  0  0
    0.0000    1.1480   -1.3747 N   0  0  0  0  0  0  0  0  0  0  0  0
    0.0000    1.1983   -2.6950 C   0  0  0  0  0  0  0  0  0  0  0  0
    0.0000    0.0612   -3.4880 C   0  0  0  0  0  0  0  0  0  0  0  0
   -0.0000   -1.1764   -2.8601 C   0  0  0  0  0  0  0  0  0  0  0  0
   -0.0000   -1.2333   -1.4757 C   0  0  0  0  0  0  0  0  0  0  0  0
    0.0001    2.1921   -3.1221 H   0  0  0  0  0  0  0  0  0  0  0  0
    0.0000    0.1413   -4.5632 H   0  0  0  0  0  0  0  0  0  0  0  0
   -0.0000   -2.0890   -3.4378 H   0  0  0  0  0  0  0  0  0  0  0  0
   -0.0000   -2.1731   -0.9467 H   0  0  0  0  0  0  0  0  0  0  0  0
  2  1  1  0  0  0  0
  3  2  1  0  0  0  0
  4  3  2  0  0  0  0
  5  6  2  0  0  0  0
  5  4  1  0  0  0  0
  6  7  1  0  0  0  0
  7 11  1  0  0  0  0
  7  2  2  0  0  0  0
  8  4  1  0  0  0  0
  9  5  1  0  0  0  0
 10  6  1  0  0  0  0
M  END
$$$$
