Standard file
     RDKit          3D

 11 11  0  0  0  0  0  0  0  0999 V2000
    0.0000   -0.8539   -1.9351 I   0  0  0  0  0  0  0  0  0  0  0  0
    0.0000    0.0000    0.0000 C   0  0  0  0  0  0  0  0  0  0  0  0
    0.0000   -0.8539    0.9926 N   0  0  0  0  0  0  0  0  0  0  0  0
    0.0000   -0.3824    2.2269 C   0  0  0  0  0  0  0  0  0  0  0  0
    0.0000    0.9746    2.5105 C   0  0  0  0  0  0  0  0  0  0  0  0
    0.0000    1.8668    1.4476 C   0  0  0  0  0  0  0  0  0  0  0  0
    0.0000    1.3763    0.1518 C   0  0  0  0  0  0  0  0  0  0  0  0
    0.0001   -1.1291    3.0095 H   0  0  0  0  0  0  0  0  0  0  0  0
    0.0000    1.3225    3.5310 H   0  0  0  0  0  0  0  0  0  0  0  0
    0.0000    2.9329    1.6212 H   0  0  0  0  0  0  0  0  0  0  0  0
    0.0000    2.0334   -0.7034 H   0  0  0  0  0  0  0  0  0  0  0  0
  2  1  1  0
  3  2  1  0
  4  3  2  0
  5  6  2  0
  5  4  1  0
  6  7  1  0
  7 11  1  0
  7  2  2  0
  8  4  1  0
  9  5  1  0
 10  6  1  0
M  END
$$$$
