Standard file
     RDKit          3D

 15 15  0  0  0  0  0  0  0  0999 V2000
   -0.0000   -0.8065   -1.7184 Br  0  0  0  0  0  0  0  0  0  0  0  0
    0.0000    0.0000    0.0000 C   0  0  0  0  0  0  0  0  0  0  0  0
   -0.0000   -0.8065    1.1274 C   0  0  0  0  0  0  0  0  0  0  0  0
   -0.0020   -0.2179    2.3785 C   0  0  0  0  0  0  0  0  0  0  0  0
   -0.0084    1.1673    2.4871 C   0  0  0  0  0  0  0  0  0  0  0  0
    0.0198    1.8061    3.8482 C   0  0  0  0  0  0  0  0  0  0  0  0
   -0.5799    1.0573    4.7842 F   0  0  0  0  0  0  0  0  0  0  0  0
    1.2798    2.0093    4.2796 F   0  0  0  0  0  0  0  0  0  0  0  0
   -0.5809    3.0042    3.8705 F   0  0  0  0  0  0  0  0  0  0  0  0
   -0.0034    1.9689    1.3521 C   0  0  0  0  0  0  0  0  0  0  0  0
   -0.0013    1.3826    0.1000 C   0  0  0  0  0  0  0  0  0  0  0  0
    0.0019   -1.8807    1.0280 H   0  0  0  0  0  0  0  0  0  0  0  0
   -0.0043   -0.8303    3.2671 H   0  0  0  0  0  0  0  0  0  0  0  0
   -0.0066    3.0436    1.4489 H   0  0  0  0  0  0  0  0  0  0  0  0
   -0.0004    1.9925   -0.7899 H   0  0  0  0  0  0  0  0  0  0  0  0
  2  1  1  0
  2  3  1  0
  3 12  1  0
  4  3  2  0
  4 13  1  0
  5  4  1  0
  6  5  1  0
  6  7  1  0
  8  6  1  0
  9  6  1  0
 10 11  1  0
 10  5  2  0
 11  2  2  0
 14 10  1  0
 15 11  1  0
M  END
$$$$
