Standard file
     RDKit          3D

 11 11  0  0  0  0  0  0  0  0999 V2000
    0.0000   -0.7633   -1.5479 Cl  0  0  0  0  0  0  0  0  0  0  0  0
    0.0000    0.0000    0.0000 C   0  0  0  0  0  0  0  0  0  0  0  0
    0.0000   -0.7633    1.1627 C   0  0  0  0  0  0  0  0  0  0  0  0
    0.0000   -0.2190    2.3634 N   0  0  0  0  0  0  0  0  0  0  0  0
    0.0000    1.0989    2.4669 C   0  0  0  0  0  0  0  0  0  0  0  0
    0.0000    1.9454    1.3676 C   0  0  0  0  0  0  0  0  0  0  0  0
    0.0000    1.3838    0.1013 C   0  0  0  0  0  0  0  0  0  0  0  0
    0.0000   -1.8436    1.1228 H   0  0  0  0  0  0  0  0  0  0  0  0
    0.0000    1.4875    3.4759 H   0  0  0  0  0  0  0  0  0  0  0  0
    0.0000    3.0169    1.4938 H   0  0  0  0  0  0  0  0  0  0  0  0
    0.0000    1.9977   -0.7864 H   0  0  0  0  0  0  0  0  0  0  0  0
  1  2  1  0
  2  3  1  0
  3  4  2  0
  3  8  1  0
  5  9  1  0
  5  4  1  0
  6  5  2  0
  7  6  1  0
  7  2  2  0
 10  6  1  0
 11  7  1  0
M  END
$$$$
