Standard file
     RDKit          3D

 11 11  0  0  0  0  0  0  0  0999 V2000
    0.0000   -0.8209   -1.7156 Br  0  0  0  0  0  0  0  0  0  0  0  0
    0.0000    0.0000    0.0000 C   0  0  0  0  0  0  0  0  0  0  0  0
    0.0000   -0.8209    1.0228 N   0  0  0  0  0  0  0  0  0  0  0  0
    0.0000   -0.3029    2.2388 C   0  0  0  0  0  0  0  0  0  0  0  0
    0.0000    1.0637    2.4717 C   0  0  0  0  0  0  0  0  0  0  0  0
    0.0000    1.9183    1.3776 C   0  0  0  0  0  0  0  0  0  0  0  0
    0.0000    1.3838    0.1001 C   0  0  0  0  0  0  0  0  0  0  0  0
    0.0000   -1.0202    3.0480 H   0  0  0  0  0  0  0  0  0  0  0  0
    0.0000    1.4489    3.4787 H   0  0  0  0  0  0  0  0  0  0  0  0
    0.0000    2.9897    1.5148 H   0  0  0  0  0  0  0  0  0  0  0  0
    0.0000    2.0037   -0.7819 H   0  0  0  0  0  0  0  0  0  0  0  0
  1  2  1  0
  2  3  1  0
  3  4  2  0
  4  8  1  0
  5  4  1  0
  5  9  1  0
  6  5  2  0
  7  2  2  0
  7  6  1  0
 10  6  1  0
 11  7  1  0
M  END
$$$$
