Standard file
     RDKit          3D

 16 16  0  0  0  0  0  0  0  0999 V2000
    0.0000   -0.8051   -1.7280 Br  0  0  0  0  0  0  0  0  0  0  0  0
    0.0000    0.0000    0.0000 C   0  0  0  0  0  0  0  0  0  0  0  0
    0.0000   -0.8051    1.1287 C   0  0  0  0  0  0  0  0  0  0  0  0
    0.0000   -0.2172    2.3747 C   0  0  0  0  0  0  0  0  0  0  0  0
    0.0000    1.1745    2.5079 C   0  0  0  0  0  0  0  0  0  0  0  0
    0.0000    1.6462    3.7799 O   0  0  0  0  0  0  0  0  0  0  0  0
    0.0000    3.0388    3.9872 C   0  0  0  0  0  0  0  0  0  0  0  0
    0.0000    1.9666    1.3629 C   0  0  0  0  0  0  0  0  0  0  0  0
    0.0000    1.3768    0.1099 C   0  0  0  0  0  0  0  0  0  0  0  0
    0.0000   -1.8797    1.0309 H   0  0  0  0  0  0  0  0  0  0  0  0
    0.0000   -0.8178    3.2702 H   0  0  0  0  0  0  0  0  0  0  0  0
   -0.8939    3.5083    3.5641 H   0  0  0  0  0  0  0  0  0  0  0  0
    0.0000    3.1745    5.0672 H   0  0  0  0  0  0  0  0  0  0  0  0
    0.8939    3.5083    3.5641 H   0  0  0  0  0  0  0  0  0  0  0  0
    0.0000    3.0428    1.4285 H   0  0  0  0  0  0  0  0  0  0  0  0
    0.0000    1.9934   -0.7760 H   0  0  0  0  0  0  0  0  0  0  0  0
  1  2  1  0
  2  9  1  0
  3  4  1  0
  3  2  2  0
  4  5  2  0
  5  6  1  0
  5  8  1  0
  6  7  1  0
  7 12  1  0
  7 14  1  0
  8 15  1  0
  9  8  2  0
  9 16  1  0
 10  3  1  0
 11  4  1  0
 13  7  1  0
M  END
$$$$
