Standard file
     RDKit          3D

 16 16  0  0  0  0  0  0  0  0999 V2000
    0.0000   -0.7719   -1.5490 Cl  0  0  0  0  0  0  0  0  0  0  0  0
    0.0000    0.0000    0.0000 C   0  0  0  0  0  0  0  0  0  0  0  0
    0.0000   -0.7719    1.1534 C   0  0  0  0  0  0  0  0  0  0  0  0
    0.0000   -0.1520    2.3842 C   0  0  0  0  0  0  0  0  0  0  0  0
    0.0000    1.2418    2.4822 C   0  0  0  0  0  0  0  0  0  0  0  0
    0.0000    1.7477    3.7433 O   0  0  0  0  0  0  0  0  0  0  0  0
    0.0000    3.1451    3.9114 C   0  0  0  0  0  0  0  0  0  0  0  0
    0.0000    2.0025    1.3171 C   0  0  0  0  0  0  0  0  0  0  0  0
    0.0000    1.3802    0.0794 C   0  0  0  0  0  0  0  0  0  0  0  0
    0.0000   -1.8481    1.0836 H   0  0  0  0  0  0  0  0  0  0  0  0
    0.0000   -0.7289    3.2952 H   0  0  0  0  0  0  0  0  0  0  0  0
   -0.8937    3.6031    3.4752 H   0  0  0  0  0  0  0  0  0  0  0  0
    0.0000    3.3114    4.9872 H   0  0  0  0  0  0  0  0  0  0  0  0
    0.8937    3.6031    3.4752 H   0  0  0  0  0  0  0  0  0  0  0  0
    0.0000    3.0801    1.3549 H   0  0  0  0  0  0  0  0  0  0  0  0
    0.0000    1.9736   -0.8216 H   0  0  0  0  0  0  0  0  0  0  0  0
  2  1  1  0
  3  2  1  0
  3 10  1  0
  4  3  2  0
  5  8  2  0
  5  4  1  0
  6  5  1  0
  7 12  1  0
  7 14  1  0
  7  6  1  0
  8  9  1  0
  9 16  1  0
  9  2  2  0
 11  4  1  0
 13  7  1  0
 15  8  1  0
M  END
$$$$
