Standard file
     RDKit          3D

 15 15  0  0  0  0  0  0  0  0999 V2000
   -0.0000   -0.7725   -1.5387 Cl  0  0  0  0  0  0  0  0  0  0  0  0
    0.0000    0.0000    0.0000 C   0  0  0  0  0  0  0  0  0  0  0  0
    0.0000   -0.7725    1.1532 C   0  0  0  0  0  0  0  0  0  0  0  0
   -0.0016   -0.1514    2.3882 C   0  0  0  0  0  0  0  0  0  0  0  0
   -0.0075    1.2360    2.4620 C   0  0  0  0  0  0  0  0  0  0  0  0
    0.0211    1.9104    3.8053 C   0  0  0  0  0  0  0  0  0  0  0  0
   -0.5787    1.1877    4.7623 F   0  0  0  0  0  0  0  0  0  0  0  0
    1.2809    2.1257    4.2338 F   0  0  0  0  0  0  0  0  0  0  0  0
   -0.5789    3.1094    3.7975 F   0  0  0  0  0  0  0  0  0  0  0  0
   -0.0024    2.0056    1.3053 C   0  0  0  0  0  0  0  0  0  0  0  0
   -0.0008    1.3862    0.0695 C   0  0  0  0  0  0  0  0  0  0  0  0
    0.0015   -1.8484    1.0828 H   0  0  0  0  0  0  0  0  0  0  0  0
   -0.0040   -0.7398    3.2928 H   0  0  0  0  0  0  0  0  0  0  0  0
   -0.0054    3.0826    1.3739 H   0  0  0  0  0  0  0  0  0  0  0  0
    0.0001    1.9725   -0.8355 H   0  0  0  0  0  0  0  0  0  0  0  0
  1  2  1  0
  2  3  1  0
  3  4  2  0
  3 12  1  0
  4 13  1  0
  5  6  1  0
  5  4  1  0
  6  7  1  0
  8  6  1  0
  9  6  1  0
 10  5  2  0
 11 10  1  0
 11  2  2  0
 14 10  1  0
 15 11  1  0
M  END
$$$$
