Standard file
 OpenBabel12142210053D

 11 11  0  0  0  0  0  0  0  0999 V2000
    0.0000   -1.2771   -0.9719 Br  0  0  0  0  0  0  0  0  0  0  0  0
   -0.0000    0.2492    0.1628 C   0  0  0  0  0  0  0  0  0  0  0  0
    0.0000    0.0000    1.4504 N   0  0  0  0  0  0  0  0  0  0  0  0
    0.0000    1.0254    2.2845 C   0  0  0  0  0  0  0  0  0  0  0  0
    0.0000    2.3429    1.8531 C   0  0  0  0  0  0  0  0  0  0  0  0
    0.0000    2.5886    0.4867 C   0  0  0  0  0  0  0  0  0  0  0  0
   -0.0000    1.5200   -0.3940 C   0  0  0  0  0  0  0  0  0  0  0  0
    0.0000    0.7683    3.3348 H   0  0  0  0  0  0  0  0  0  0  0  0
    0.0000    3.1533    2.5643 H   0  0  0  0  0  0  0  0  0  0  0  0
   -0.0000    3.6003    0.1085 H   0  0  0  0  0  0  0  0  0  0  0  0
   -0.0000    1.6570   -1.4634 H   0  0  0  0  0  0  0  0  0  0  0  0
  1  2  1  0  0  0  0
  2  3  1  0  0  0  0
  3  4  2  0  0  0  0
  4  8  1  0  0  0  0
  5  4  1  0  0  0  0
  5  9  1  0  0  0  0
  6  5  2  0  0  0  0
  7  2  2  0  0  0  0
  7  6  1  0  0  0  0
 10  6  1  0  0  0  0
 11  7  1  0  0  0  0
M  END
$$$$
