Standard file
 OpenBabel12142210053D

 11 11  0  0  0  0  0  0  0  0999 V2000
    0.0000   -2.0825   -0.3562 Cl  0  0  0  0  0  0  0  0  0  0  0  0
   -0.0000   -0.3835   -0.0826 C   0  0  0  0  0  0  0  0  0  0  0  0
    0.0000    0.0000    1.1755 N   0  0  0  0  0  0  0  0  0  0  0  0
    0.0000    1.2976    1.4314 C   0  0  0  0  0  0  0  0  0  0  0  0
    0.0000    2.2644    0.4389 C   0  0  0  0  0  0  0  0  0  0  0  0
    0.0000    1.8450   -0.8845 C   0  0  0  0  0  0  0  0  0  0  0  0
    0.0000    0.4897   -1.1646 C   0  0  0  0  0  0  0  0  0  0  0  0
    0.0000    1.5603    2.4804 H   0  0  0  0  0  0  0  0  0  0  0  0
    0.0000    3.3127    0.6914 H   0  0  0  0  0  0  0  0  0  0  0  0
    0.0000    2.5644   -1.6902 H   0  0  0  0  0  0  0  0  0  0  0  0
    0.0000    0.1146   -2.1748 H   0  0  0  0  0  0  0  0  0  0  0  0
  1  2  1  0  0  0  0
  2  3  1  0  0  0  0
  3  4  2  0  0  0  0
  4  8  1  0  0  0  0
  5  9  1  0  0  0  0
  5  4  1  0  0  0  0
  6  5  2  0  0  0  0
  7  6  1  0  0  0  0
  7  2  2  0  0  0  0
 10  6  1  0  0  0  0
 11  7  1  0  0  0  0
M  END
$$$$
