Standard file
 OpenBabel12142210053D

 11 11  0  0  0  0  0  0  0  0999 V2000
    0.0000   -2.0872   -0.5256 Cl  0  0  0  0  0  0  0  0  0  0  0  0
    0.0000   -0.4083   -0.1258 C   0  0  0  0  0  0  0  0  0  0  0  0
    0.0000    0.0000    1.2038 C   0  0  0  0  0  0  0  0  0  0  0  0
    0.0000    1.2718    1.5507 N   0  0  0  0  0  0  0  0  0  0  0  0
    0.0000    2.1924    0.6020 C   0  0  0  0  0  0  0  0  0  0  0  0
    0.0000    1.8860   -0.7512 C   0  0  0  0  0  0  0  0  0  0  0  0
    0.0000    0.5526   -1.1267 C   0  0  0  0  0  0  0  0  0  0  0  0
    0.0000   -0.7200    2.0102 H   0  0  0  0  0  0  0  0  0  0  0  0
    0.0000    3.2173    0.9465 H   0  0  0  0  0  0  0  0  0  0  0  0
    0.0000    2.6668   -1.4958 H   0  0  0  0  0  0  0  0  0  0  0  0
    0.0000    0.2607   -2.1658 H   0  0  0  0  0  0  0  0  0  0  0  0
  1  2  1  0  0  0  0
  2  3  1  0  0  0  0
  3  4  2  0  0  0  0
  3  8  1  0  0  0  0
  5  9  1  0  0  0  0
  5  4  1  0  0  0  0
  6  5  2  0  0  0  0
  7  6  1  0  0  0  0
  7  2  2  0  0  0  0
 10  6  1  0  0  0  0
 11  7  1  0  0  0  0
M  END
$$$$
