Standard file
 OpenBabel12142210053D

 18 18  0  0  0  0  0  0  0  0999 V2000
    0.6901   -2.6093    1.2891 Cl  0  0  0  0  0  0  0  0  0  0  0  0
    0.2003   -1.1204    0.5530 C   0  0  0  0  0  0  0  0  0  0  0  0
    0.0106   -1.0641   -0.8175 C   0  0  0  0  0  0  0  0  0  0  0  0
   -0.3829    0.1285   -1.3968 C   0  0  0  0  0  0  0  0  0  0  0  0
   -0.5924    1.2656   -0.6266 C   0  0  0  0  0  0  0  0  0  0  0  0
   -0.9747    2.5676   -1.2700 C   0  0  0  0  0  0  0  0  0  0  0  0
    0.2760    3.3607   -1.6543 C   0  0  0  0  0  0  0  0  0  0  0  0
   -0.3934    1.1844    0.7460 C   0  0  0  0  0  0  0  0  0  0  0  0
    0.0000    0.0000    1.3418 C   0  0  0  0  0  0  0  0  0  0  0  0
    0.1685   -1.9437   -1.4219 H   0  0  0  0  0  0  0  0  0  0  0  0
   -0.5323    0.1734   -2.4658 H   0  0  0  0  0  0  0  0  0  0  0  0
   -1.5775    3.1593   -0.5785 H   0  0  0  0  0  0  0  0  0  0  0  0
   -1.5694    2.3774   -2.1655 H   0  0  0  0  0  0  0  0  0  0  0  0
    0.8846    2.7920   -2.3537 H   0  0  0  0  0  0  0  0  0  0  0  0
    0.0000    4.3037   -2.1203 H   0  0  0  0  0  0  0  0  0  0  0  0
    0.8765    3.5712   -0.7723 H   0  0  0  0  0  0  0  0  0  0  0  0
   -0.5512    2.0588    1.3605 H   0  0  0  0  0  0  0  0  0  0  0  0
    0.1497   -0.0561    2.4088 H   0  0  0  0  0  0  0  0  0  0  0  0
  2  1  1  0  0  0  0
  2  9  1  0  0  0  0
  3  2  2  0  0  0  0
  4  3  1  0  0  0  0
  4  5  2  0  0  0  0
  5  8  1  0  0  0  0
  6  5  1  0  0  0  0
  6 12  1  0  0  0  0
  7  6  1  0  0  0  0
  7 16  1  0  0  0  0
  8  9  2  0  0  0  0
  8 17  1  0  0  0  0
  9 18  1  0  0  0  0
 10  3  1  0  0  0  0
 11  4  1  0  0  0  0
 13  6  1  0  0  0  0
 14  7  1  0  0  0  0
 15  7  1  0  0  0  0
M  END
$$$$
