O=C(C1=CC=CC=C1)/N=C/C2=CC=CC3=C2C=CC=C3
 OpenBabel09032014123D

 33 35  0  0  0  0  0  0  0  0999 V2000
    1.9044    1.0084    1.9479 O   0  0  0  0  0  0  0  0  0  0  0  0
    2.0409    0.4494    0.8643 C   0  0  0  0  0  0  0  0  0  0  0  0
    3.4171    0.1588    0.3563 C   0  0  0  0  0  0  0  0  0  0  0  0
    3.6197   -0.4780   -0.8761 C   0  0  0  0  0  0  0  0  0  0  0  0
    4.9155   -0.7381   -1.3280 C   0  0  0  0  0  0  0  0  0  0  0  0
    6.0135   -0.3646   -0.5536 C   0  0  0  0  0  0  0  0  0  0  0  0
    5.8205    0.2693    0.6735 C   0  0  0  0  0  0  0  0  0  0  0  0
    4.5264    0.5309    1.1285 C   0  0  0  0  0  0  0  0  0  0  0  0
    1.0097    0.0500    0.0423 N   0  0  0  0  0  0  0  0  0  0  0  0
   -0.1943    0.2902    0.4594 C   0  0  0  0  0  0  0  0  0  0  0  0
   -1.3896   -0.0924   -0.3368 C   0  0  0  0  0  0  0  0  0  0  0  0
   -1.1663   -0.7294   -1.5684 C   0  0  0  0  0  0  0  0  0  0  0  0
   -2.2359   -1.1154   -2.3661 C   0  0  0  0  0  0  0  0  0  0  0  0
   -3.5371   -0.8683   -1.9399 C   0  0  0  0  0  0  0  0  0  0  0  0
   -3.7906   -0.2336   -0.7139 C   0  0  0  0  0  0  0  0  0  0  0  0
   -2.7139    0.1707    0.1195 C   0  0  0  0  0  0  0  0  0  0  0  0
   -3.0502    0.8062    1.3434 C   0  0  0  0  0  0  0  0  0  0  0  0
   -4.3774    1.0289    1.7211 C   0  0  0  0  0  0  0  0  0  0  0  0
   -5.4114    0.6250    0.8901 C   0  0  0  0  0  0  0  0  0  0  0  0
   -5.1186   -0.0017   -0.3186 C   0  0  0  0  0  0  0  0  0  0  0  0
    2.7740   -0.7753   -1.4913 H   0  0  0  0  0  0  0  0  0  0  0  0
    5.0666   -1.2322   -2.2846 H   0  0  0  0  0  0  0  0  0  0  0  0
    7.0214   -0.5679   -0.9070 H   0  0  0  0  0  0  0  0  0  0  0  0
    6.6766    0.5604    1.2770 H   0  0  0  0  0  0  0  0  0  0  0  0
    4.3860    1.0260    2.0873 H   0  0  0  0  0  0  0  0  0  0  0  0
   -0.3649    0.7898    1.4257 H   0  0  0  0  0  0  0  0  0  0  0  0
   -0.1546   -0.9289   -1.9141 H   0  0  0  0  0  0  0  0  0  0  0  0
   -2.0556   -1.6079   -3.3180 H   0  0  0  0  0  0  0  0  0  0  0  0
   -4.3611   -1.1788   -2.5799 H   0  0  0  0  0  0  0  0  0  0  0  0
   -2.2843    1.1447    2.0356 H   0  0  0  0  0  0  0  0  0  0  0  0
   -4.5970    1.5189    2.6665 H   0  0  0  0  0  0  0  0  0  0  0  0
   -6.4448    0.7961    1.1796 H   0  0  0  0  0  0  0  0  0  0  0  0
   -5.9447   -0.3110   -0.9563 H   0  0  0  0  0  0  0  0  0  0  0  0
  2  1  2  0  0  0  0
  3  2  1  0  0  0  0
  3  8  2  0  0  0  0
  4  3  1  0  0  0  0
  5  4  2  0  0  0  0
  5  6  1  0  0  0  0
  6  7  2  0  0  0  0
  7  8  1  0  0  0  0
  7 24  1  0  0  0  0
  8 25  1  0  0  0  0
  9 10  2  0  0  0  0
  9  2  1  0  0  0  0
 10 26  1  0  0  0  0
 11 16  1  0  0  0  0
 11 10  1  0  0  0  0
 12 11  2  0  0  0  0
 13 14  2  0  0  0  0
 13 12  1  0  0  0  0
 14 15  1  0  0  0  0
 15 20  2  0  0  0  0
 15 16  1  0  0  0  0
 16 17  2  0  0  0  0
 17 18  1  0  0  0  0
 17 30  1  0  0  0  0
 18 31  1  0  0  0  0
 19 32  1  0  0  0  0
 19 18  2  0  0  0  0
 20 19  1  0  0  0  0
 21  4  1  0  0  0  0
 22  5  1  0  0  0  0
 23  6  1  0  0  0  0
 27 12  1  0  0  0  0
 28 13  1  0  0  0  0
 29 14  1  0  0  0  0
 33 20  1  0  0  0  0
M  END
$$$$
