O=C(C1=CC=CC=C1)/N=C/C2=CC=C(OC)C=C2
 OpenBabel09032014123D

 31 32  0  0  0  0  0  0  0  0999 V2000
   -2.5314   -2.3962   -0.1631 O   0  0  0  0  0  0  0  0  0  0  0  0
   -2.2611   -1.2049   -0.0489 C   0  0  0  0  0  0  0  0  0  0  0  0
   -3.3708   -0.2069    0.0478 C   0  0  0  0  0  0  0  0  0  0  0  0
   -3.1093    1.1639    0.1792 C   0  0  0  0  0  0  0  0  0  0  0  0
   -4.1637    2.0754    0.2676 C   0  0  0  0  0  0  0  0  0  0  0  0
   -5.4824    1.6240    0.2253 C   0  0  0  0  0  0  0  0  0  0  0  0
   -5.7516    0.2619    0.0947 C   0  0  0  0  0  0  0  0  0  0  0  0
   -4.6995   -0.6522    0.0061 C   0  0  0  0  0  0  0  0  0  0  0  0
   -0.9867   -0.6827    0.0002 N   0  0  0  0  0  0  0  0  0  0  0  0
   -0.0134   -1.5312   -0.0820 C   0  0  0  0  0  0  0  0  0  0  0  0
    1.3982   -1.0991   -0.0416 C   0  0  0  0  0  0  0  0  0  0  0  0
    2.4013   -2.0642   -0.1350 C   0  0  0  0  0  0  0  0  0  0  0  0
    3.7413   -1.6707   -0.0983 C   0  0  0  0  0  0  0  0  0  0  0  0
    4.0884   -0.3219    0.0309 C   0  0  0  0  0  0  0  0  0  0  0  0
    5.4344   -0.0803    0.0531 O   0  0  0  0  0  0  0  0  0  0  0  0
    5.8426    1.2759    0.1830 C   0  0  0  0  0  0  0  0  0  0  0  0
    3.0793    0.6384    0.1239 C   0  0  0  0  0  0  0  0  0  0  0  0
    1.7349    0.2508    0.0878 C   0  0  0  0  0  0  0  0  0  0  0  0
   -2.0874    1.5326    0.2138 H   0  0  0  0  0  0  0  0  0  0  0  0
   -3.9544    3.1374    0.3694 H   0  0  0  0  0  0  0  0  0  0  0  0
   -6.3019    2.3351    0.2942 H   0  0  0  0  0  0  0  0  0  0  0  0
   -6.7798   -0.0896    0.0617 H   0  0  0  0  0  0  0  0  0  0  0  0
   -4.9196   -1.7131   -0.0956 H   0  0  0  0  0  0  0  0  0  0  0  0
   -0.1845   -2.6191   -0.1863 H   0  0  0  0  0  0  0  0  0  0  0  0
    2.1583   -3.1186   -0.2361 H   0  0  0  0  0  0  0  0  0  0  0  0
    4.5250   -2.4214   -0.1710 H   0  0  0  0  0  0  0  0  0  0  0  0
    5.5002    1.7019    1.1318 H   0  0  0  0  0  0  0  0  0  0  0  0
    5.4988    1.8746   -0.6670 H   0  0  0  0  0  0  0  0  0  0  0  0
    6.9367    1.2970    0.1841 H   0  0  0  0  0  0  0  0  0  0  0  0
    3.3005    1.6956    0.2253 H   0  0  0  0  0  0  0  0  0  0  0  0
    0.9576    1.0075    0.1610 H   0  0  0  0  0  0  0  0  0  0  0  0
  1  2  2  0  0  0  0
  2  9  1  0  0  0  0
  2  3  1  0  0  0  0
  3  4  1  0  0  0  0
  4 19  1  0  0  0  0
  4  5  2  0  0  0  0
  5 20  1  0  0  0  0
  6  5  1  0  0  0  0
  6 21  1  0  0  0  0
  7  6  2  0  0  0  0
  8  3  2  0  0  0  0
  8  7  1  0  0  0  0
 10 11  1  0  0  0  0
 10  9  2  0  0  0  0
 11 18  2  0  0  0  0
 12 13  2  0  0  0  0
 12 11  1  0  0  0  0
 13 14  1  0  0  0  0
 14 15  1  0  0  0  0
 14 17  2  0  0  0  0
 15 16  1  0  0  0  0
 16 29  1  0  0  0  0
 16 27  1  0  0  0  0
 17 30  1  0  0  0  0
 18 17  1  0  0  0  0
 18 31  1  0  0  0  0
 22  7  1  0  0  0  0
 23  8  1  0  0  0  0
 24 10  1  0  0  0  0
 25 12  1  0  0  0  0
 26 13  1  0  0  0  0
 28 16  1  0  0  0  0
M  END
$$$$
