O=C(C1=CC=CC=C1)/N=C/C2=CC=CC3=C2C=CC=C3
 OpenBabel09032014123D

 33 35  0  0  0  0  0  0  0  0999 V2000
    2.0135   -0.2182   -2.1743 O   0  0  0  0  0  0  0  0  0  0  0  0
    2.0887   -0.1610   -0.9510 C   0  0  0  0  0  0  0  0  0  0  0  0
    3.4323   -0.2010   -0.2954 C   0  0  0  0  0  0  0  0  0  0  0  0
    3.5651   -0.1384    1.0987 C   0  0  0  0  0  0  0  0  0  0  0  0
    4.8316   -0.1776    1.6865 C   0  0  0  0  0  0  0  0  0  0  0  0
    5.9697   -0.2795    0.8870 C   0  0  0  0  0  0  0  0  0  0  0  0
    5.8462   -0.3423   -0.5006 C   0  0  0  0  0  0  0  0  0  0  0  0
    4.5815   -0.3033   -1.0917 C   0  0  0  0  0  0  0  0  0  0  0  0
    1.0145   -0.0597   -0.0941 N   0  0  0  0  0  0  0  0  0  0  0  0
   -0.1624   -0.0231   -0.6370 C   0  0  0  0  0  0  0  0  0  0  0  0
   -1.3988    0.0850    0.1808 C   0  0  0  0  0  0  0  0  0  0  0  0
   -1.2453    0.1466    1.5754 C   0  0  0  0  0  0  0  0  0  0  0  0
   -2.3565    0.2483    2.4027 C   0  0  0  0  0  0  0  0  0  0  0  0
   -3.6298    0.2894    1.8435 C   0  0  0  0  0  0  0  0  0  0  0  0
   -3.8138    0.2296    0.4532 C   0  0  0  0  0  0  0  0  0  0  0  0
   -2.6935    0.1254   -0.4137 C   0  0  0  0  0  0  0  0  0  0  0  0
   -2.9600    0.0700   -1.8068 C   0  0  0  0  0  0  0  0  0  0  0  0
   -4.2620    0.1153   -2.3132 C   0  0  0  0  0  0  0  0  0  0  0  0
   -5.3396    0.2172   -1.4464 C   0  0  0  0  0  0  0  0  0  0  0  0
   -5.1155    0.2739   -0.0731 C   0  0  0  0  0  0  0  0  0  0  0  0
    2.6874   -0.0588    1.7355 H   0  0  0  0  0  0  0  0  0  0  0  0
    4.9285   -0.1287    2.7682 H   0  0  0  0  0  0  0  0  0  0  0  0
    6.9547   -0.3099    1.3463 H   0  0  0  0  0  0  0  0  0  0  0  0
    6.7336   -0.4217   -1.1236 H   0  0  0  0  0  0  0  0  0  0  0  0
    4.4955   -0.3529   -2.1753 H   0  0  0  0  0  0  0  0  0  0  0  0
   -0.2782   -0.0717   -1.7309 H   0  0  0  0  0  0  0  0  0  0  0  0
   -0.2561    0.1155    2.0263 H   0  0  0  0  0  0  0  0  0  0  0  0
   -2.2301    0.2955    3.4812 H   0  0  0  0  0  0  0  0  0  0  0  0
   -4.4872    0.3693    2.5094 H   0  0  0  0  0  0  0  0  0  0  0  0
   -2.1576   -0.0100   -2.5348 H   0  0  0  0  0  0  0  0  0  0  0  0
   -4.4279    0.0705   -3.3868 H   0  0  0  0  0  0  0  0  0  0  0  0
   -6.3536    0.2527   -1.8356 H   0  0  0  0  0  0  0  0  0  0  0  0
   -5.9749    0.3538    0.5901 H   0  0  0  0  0  0  0  0  0  0  0  0
  1  2  2  0  0  0  0
  2  3  1  0  0  0  0
  2  9  1  0  0  0  0
  3  4  2  0  0  0  0
  4  5  1  0  0  0  0
  4 21  1  0  0  0  0
  5 22  1  0  0  0  0
  6 23  1  0  0  0  0
  6  5  2  0  0  0  0
  7  6  1  0  0  0  0
  8  7  2  0  0  0  0
  8  3  1  0  0  0  0
 10  9  2  0  0  0  0
 10 11  1  0  0  0  0
 11 12  1  0  0  0  0
 12 27  1  0  0  0  0
 12 13  2  0  0  0  0
 13 28  1  0  0  0  0
 14 13  1  0  0  0  0
 14 29  1  0  0  0  0
 15 14  2  0  0  0  0
 16 11  2  0  0  0  0
 16 15  1  0  0  0  0
 17 16  1  0  0  0  0
 18 17  2  0  0  0  0
 18 19  1  0  0  0  0
 19 20  2  0  0  0  0
 20 15  1  0  0  0  0
 20 33  1  0  0  0  0
 24  7  1  0  0  0  0
 25  8  1  0  0  0  0
 26 10  1  0  0  0  0
 30 17  1  0  0  0  0
 31 18  1  0  0  0  0
 32 19  1  0  0  0  0
M  END
$$$$
