O=C(C1=CC=CC=C1)/N=C/C2=CC=CC=C2
 OpenBabel09032014123D

 27 28  0  0  0  0  0  0  0  0999 V2000
   -1.5263   -0.5732   -2.0806 O   0  0  0  0  0  0  0  0  0  0  0  0
   -1.3083   -0.1672   -0.9435 C   0  0  0  0  0  0  0  0  0  0  0  0
   -2.4402    0.3676   -0.1252 C   0  0  0  0  0  0  0  0  0  0  0  0
   -2.2372    0.8418    1.1783 C   0  0  0  0  0  0  0  0  0  0  0  0
   -3.3117    1.3364    1.9214 C   0  0  0  0  0  0  0  0  0  0  0  0
   -4.5916    1.3600    1.3681 C   0  0  0  0  0  0  0  0  0  0  0  0
   -4.8019    0.8901    0.0721 C   0  0  0  0  0  0  0  0  0  0  0  0
   -3.7301    0.3950   -0.6738 C   0  0  0  0  0  0  0  0  0  0  0  0
   -0.0758   -0.1575   -0.3282 N   0  0  0  0  0  0  0  0  0  0  0  0
    0.9177   -0.6160   -1.0186 C   0  0  0  0  0  0  0  0  0  0  0  0
    2.2887   -0.6591   -0.4714 C   0  0  0  0  0  0  0  0  0  0  0  0
    2.5605   -0.2021    0.8215 C   0  0  0  0  0  0  0  0  0  0  0  0
    3.8646   -0.2536    1.3152 C   0  0  0  0  0  0  0  0  0  0  0  0
    4.8928   -0.7600    0.5194 C   0  0  0  0  0  0  0  0  0  0  0  0
    4.6203   -1.2160   -0.7713 C   0  0  0  0  0  0  0  0  0  0  0  0
    3.3173   -1.1667   -1.2701 C   0  0  0  0  0  0  0  0  0  0  0  0
   -1.2456    0.8302    1.6240 H   0  0  0  0  0  0  0  0  0  0  0  0
   -3.1487    1.7029    2.9319 H   0  0  0  0  0  0  0  0  0  0  0  0
   -5.4266    1.7453    1.9481 H   0  0  0  0  0  0  0  0  0  0  0  0
   -5.7998    0.9086   -0.3589 H   0  0  0  0  0  0  0  0  0  0  0  0
   -3.9042    0.0306   -1.6842 H   0  0  0  0  0  0  0  0  0  0  0  0
    0.7946   -0.9981   -2.0494 H   0  0  0  0  0  0  0  0  0  0  0  0
    1.7643    0.1936    1.4467 H   0  0  0  0  0  0  0  0  0  0  0  0
    4.0774    0.1014    2.3205 H   0  0  0  0  0  0  0  0  0  0  0  0
    5.9081   -0.7992    0.9063 H   0  0  0  0  0  0  0  0  0  0  0  0
    5.4241   -1.6099   -1.3883 H   0  0  0  0  0  0  0  0  0  0  0  0
    3.1176   -1.5248   -2.2767 H   0  0  0  0  0  0  0  0  0  0  0  0
  1  2  2  0  0  0  0
  2  9  1  0  0  0  0
  2  3  1  0  0  0  0
  3  4  1  0  0  0  0
  4 17  1  0  0  0  0
  4  5  2  0  0  0  0
  5 18  1  0  0  0  0
  6  5  1  0  0  0  0
  6 19  1  0  0  0  0
  7  6  2  0  0  0  0
  8  3  2  0  0  0  0
  8  7  1  0  0  0  0
 10 11  1  0  0  0  0
 10  9  2  0  0  0  0
 11 12  2  0  0  0  0
 12 13  1  0  0  0  0
 12 23  1  0  0  0  0
 13 24  1  0  0  0  0
 14 25  1  0  0  0  0
 14 13  2  0  0  0  0
 15 14  1  0  0  0  0
 16 15  2  0  0  0  0
 16 11  1  0  0  0  0
 20  7  1  0  0  0  0
 21  8  1  0  0  0  0
 22 10  1  0  0  0  0
 26 15  1  0  0  0  0
 27 16  1  0  0  0  0
M  END
$$$$
