O=C(C1=CC=CC=C1)/N=C/C2=CC=CC3=C2C=CC=C3
 OpenBabel09032014123D

 33 35  0  0  0  0  0  0  0  0999 V2000
    1.9865   -1.4271    1.5645 O   0  0  0  0  0  0  0  0  0  0  0  0
    2.0719   -0.7367    0.5538 C   0  0  0  0  0  0  0  0  0  0  0  0
    3.4155   -0.4882   -0.0542 C   0  0  0  0  0  0  0  0  0  0  0  0
    3.5597    0.2941   -1.2085 C   0  0  0  0  0  0  0  0  0  0  0  0
    4.8259    0.5111   -1.7567 C   0  0  0  0  0  0  0  0  0  0  0  0
    5.9524   -0.0507   -1.1565 C   0  0  0  0  0  0  0  0  0  0  0  0
    5.8175   -0.8302   -0.0081 C   0  0  0  0  0  0  0  0  0  0  0  0
    4.5531   -1.0492    0.5428 C   0  0  0  0  0  0  0  0  0  0  0  0
    1.0095   -0.1481   -0.0969 N   0  0  0  0  0  0  0  0  0  0  0  0
   -0.1672   -0.3480    0.4098 C   0  0  0  0  0  0  0  0  0  0  0  0
   -1.3914    0.2335   -0.2004 C   0  0  0  0  0  0  0  0  0  0  0  0
   -1.2266    1.0143   -1.3560 C   0  0  0  0  0  0  0  0  0  0  0  0
   -2.3260    1.5895   -1.9804 C   0  0  0  0  0  0  0  0  0  0  0  0
   -3.5989    1.3893   -1.4554 C   0  0  0  0  0  0  0  0  0  0  0  0
   -3.7940    0.6137   -0.3018 C   0  0  0  0  0  0  0  0  0  0  0  0
   -2.6858    0.0151    0.3547 C   0  0  0  0  0  0  0  0  0  0  0  0
   -2.9632   -0.7543    1.5149 C   0  0  0  0  0  0  0  0  0  0  0  0
   -4.2641   -0.9217    1.9978 C   0  0  0  0  0  0  0  0  0  0  0  0
   -5.3297   -0.3271    1.3392 C   0  0  0  0  0  0  0  0  0  0  0  0
   -5.0948    0.4349    0.1975 C   0  0  0  0  0  0  0  0  0  0  0  0
    2.6910    0.7388   -1.6879 H   0  0  0  0  0  0  0  0  0  0  0  0
    4.9317    1.1186   -2.6520 H   0  0  0  0  0  0  0  0  0  0  0  0
    6.9372    0.1193   -1.5846 H   0  0  0  0  0  0  0  0  0  0  0  0
    6.6958   -1.2680    0.4596 H   0  0  0  0  0  0  0  0  0  0  0  0
    4.4581   -1.6589    1.4391 H   0  0  0  0  0  0  0  0  0  0  0  0
   -0.2919   -0.9608    1.3160 H   0  0  0  0  0  0  0  0  0  0  0  0
   -0.2376    1.1793   -1.7774 H   0  0  0  0  0  0  0  0  0  0  0  0
   -2.1909    2.1926   -2.8744 H   0  0  0  0  0  0  0  0  0  0  0  0
   -4.4470    1.8488   -1.9598 H   0  0  0  0  0  0  0  0  0  0  0  0
   -2.1704   -1.2441    2.0732 H   0  0  0  0  0  0  0  0  0  0  0  0
   -4.4385   -1.5184    2.8898 H   0  0  0  0  0  0  0  0  0  0  0  0
   -6.3429   -0.4546    1.7111 H   0  0  0  0  0  0  0  0  0  0  0  0
   -5.9449    0.8931   -0.3046 H   0  0  0  0  0  0  0  0  0  0  0  0
  2  1  2  0  0  0  0
  3  8  2  0  0  0  0
  3  2  1  0  0  0  0
  4  3  1  0  0  0  0
  5  4  2  0  0  0  0
  5  6  1  0  0  0  0
  6  7  2  0  0  0  0
  7 24  1  0  0  0  0
  7  8  1  0  0  0  0
  8 25  1  0  0  0  0
  9 10  2  0  0  0  0
  9  2  1  0  0  0  0
 10 26  1  0  0  0  0
 11 16  1  0  0  0  0
 11 10  1  0  0  0  0
 12 11  2  0  0  0  0
 13 14  2  0  0  0  0
 13 12  1  0  0  0  0
 14 15  1  0  0  0  0
 15 20  2  0  0  0  0
 15 16  1  0  0  0  0
 16 17  2  0  0  0  0
 17 18  1  0  0  0  0
 17 30  1  0  0  0  0
 18 31  1  0  0  0  0
 19 32  1  0  0  0  0
 19 18  2  0  0  0  0
 20 19  1  0  0  0  0
 21  4  1  0  0  0  0
 22  5  1  0  0  0  0
 23  6  1  0  0  0  0
 27 12  1  0  0  0  0
 28 13  1  0  0  0  0
 29 14  1  0  0  0  0
 33 20  1  0  0  0  0
M  END
$$$$
