O=C(C1=CC=CC=C1)/N=C/C2=CC=CC=C2
 OpenBabel09032014123D

 27 28  0  0  0  0  0  0  0  0999 V2000
    1.3946    1.1751    2.2599 O   0  0  0  0  0  0  0  0  0  0  0  0
    1.2525    0.6135    1.1783 C   0  0  0  0  0  0  0  0  0  0  0  0
    2.4557    0.3188    0.3403 C   0  0  0  0  0  0  0  0  0  0  0  0
    2.3403   -0.3209   -0.9017 C   0  0  0  0  0  0  0  0  0  0  0  0
    3.4802   -0.5846   -1.6649 C   0  0  0  0  0  0  0  0  0  0  0  0
    4.7384   -0.2117   -1.1930 C   0  0  0  0  0  0  0  0  0  0  0  0
    4.8617    0.4251    0.0414 C   0  0  0  0  0  0  0  0  0  0  0  0
    3.7243    0.6903    0.8071 C   0  0  0  0  0  0  0  0  0  0  0  0
    0.0465    0.2151    0.6447 N   0  0  0  0  0  0  0  0  0  0  0  0
   -1.0076    0.4605    1.3535 C   0  0  0  0  0  0  0  0  0  0  0  0
   -2.3586    0.0827    0.8916 C   0  0  0  0  0  0  0  0  0  0  0  0
   -2.5444   -0.5578   -0.3369 C   0  0  0  0  0  0  0  0  0  0  0  0
   -3.8312   -0.9043   -0.7505 C   0  0  0  0  0  0  0  0  0  0  0  0
   -4.9278   -0.6115    0.0611 C   0  0  0  0  0  0  0  0  0  0  0  0
   -4.7412    0.0280    1.2875 C   0  0  0  0  0  0  0  0  0  0  0  0
   -3.4558    0.3769    1.7061 C   0  0  0  0  0  0  0  0  0  0  0  0
    1.3667   -0.6179   -1.2836 H   0  0  0  0  0  0  0  0  0  0  0  0
    3.3850   -1.0810   -2.6275 H   0  0  0  0  0  0  0  0  0  0  0  0
    5.6243   -0.4178   -1.7886 H   0  0  0  0  0  0  0  0  0  0  0  0
    5.8427    0.7156    0.4090 H   0  0  0  0  0  0  0  0  0  0  0  0
    3.8308    1.1877    1.7691 H   0  0  0  0  0  0  0  0  0  0  0  0
   -0.9543    0.9632    2.3374 H   0  0  0  0  0  0  0  0  0  0  0  0
   -1.6946   -0.7889   -0.9740 H   0  0  0  0  0  0  0  0  0  0  0  0
   -3.9773   -1.4025   -1.7057 H   0  0  0  0  0  0  0  0  0  0  0  0
   -5.9296   -0.8825   -0.2633 H   0  0  0  0  0  0  0  0  0  0  0  0
   -5.5981    0.2544    1.9171 H   0  0  0  0  0  0  0  0  0  0  0  0
   -3.3231    0.8746    2.6631 H   0  0  0  0  0  0  0  0  0  0  0  0
  2  1  2  0  0  0  0
  3  8  1  0  0  0  0
  3  2  1  0  0  0  0
  4  3  2  0  0  0  0
  5  6  2  0  0  0  0
  5  4  1  0  0  0  0
  6  7  1  0  0  0  0
  7 20  1  0  0  0  0
  7  8  2  0  0  0  0
  8 21  1  0  0  0  0
  9  2  1  0  0  0  0
  9 10  2  0  0  0  0
 10 22  1  0  0  0  0
 11 10  1  0  0  0  0
 11 16  2  0  0  0  0
 12 11  1  0  0  0  0
 13 12  2  0  0  0  0
 13 14  1  0  0  0  0
 14 15  2  0  0  0  0
 15 16  1  0  0  0  0
 15 26  1  0  0  0  0
 16 27  1  0  0  0  0
 17  4  1  0  0  0  0
 18  5  1  0  0  0  0
 19  6  1  0  0  0  0
 23 12  1  0  0  0  0
 24 13  1  0  0  0  0
 25 14  1  0  0  0  0
M  END
$$$$
