O=C(C1=CC=CC=C1)/N=C/C2=CC=C(C(F)(F)F)C=C2
 OpenBabel09032014123D

 30 31  0  0  0  0  0  0  0  0999 V2000
    2.3571   -1.0120    2.1113 O   0  0  0  0  0  0  0  0  0  0  0  0
    2.0798   -0.5123    1.0260 C   0  0  0  0  0  0  0  0  0  0  0  0
    3.1775   -0.1349    0.0836 C   0  0  0  0  0  0  0  0  0  0  0  0
    4.5101   -0.3591    0.4558 C   0  0  0  0  0  0  0  0  0  0  0  0
    5.5493   -0.0134   -0.4105 C   0  0  0  0  0  0  0  0  0  0  0  0
    5.2635    0.5569   -1.6507 C   0  0  0  0  0  0  0  0  0  0  0  0
    3.9403    0.7831   -2.0284 C   0  0  0  0  0  0  0  0  0  0  0  0
    2.8979    0.4389   -1.1649 C   0  0  0  0  0  0  0  0  0  0  0  0
    0.8046   -0.2557    0.5747 N   0  0  0  0  0  0  0  0  0  0  0  0
   -0.1672   -0.5683    1.3680 C   0  0  0  0  0  0  0  0  0  0  0  0
   -1.5740   -0.3359    0.9840 C   0  0  0  0  0  0  0  0  0  0  0  0
   -1.8919    0.2310   -0.2533 C   0  0  0  0  0  0  0  0  0  0  0  0
   -3.2276    0.4438   -0.5990 C   0  0  0  0  0  0  0  0  0  0  0  0
   -4.2577    0.0863    0.2851 C   0  0  0  0  0  0  0  0  0  0  0  0
   -5.7001    0.3390   -0.0816 C   0  0  0  0  0  0  0  0  0  0  0  0
   -6.5604   -0.5439    0.4985 F   0  0  0  0  0  0  0  0  0  0  0  0
   -6.1204    1.5763    0.2992 F   0  0  0  0  0  0  0  0  0  0  0  0
   -5.9335    0.2587   -1.4211 F   0  0  0  0  0  0  0  0  0  0  0  0
   -3.9233   -0.4746    1.5293 C   0  0  0  0  0  0  0  0  0  0  0  0
   -2.5869   -0.6889    1.8778 C   0  0  0  0  0  0  0  0  0  0  0  0
    4.7429   -0.8036    1.4214 H   0  0  0  0  0  0  0  0  0  0  0  0
    6.5816   -0.1894   -0.1171 H   0  0  0  0  0  0  0  0  0  0  0  0
    6.0735    0.8256   -2.3243 H   0  0  0  0  0  0  0  0  0  0  0  0
    3.7180    1.2277   -2.9952 H   0  0  0  0  0  0  0  0  0  0  0  0
    1.8719    0.6218   -1.4744 H   0  0  0  0  0  0  0  0  0  0  0  0
    0.0008   -1.0203    2.3634 H   0  0  0  0  0  0  0  0  0  0  0  0
   -1.1061    0.5104   -0.9514 H   0  0  0  0  0  0  0  0  0  0  0  0
   -3.4616    0.8898   -1.5651 H   0  0  0  0  0  0  0  0  0  0  0  0
   -4.7082   -0.7493    2.2335 H   0  0  0  0  0  0  0  0  0  0  0  0
   -2.3502   -1.1275    2.8442 H   0  0  0  0  0  0  0  0  0  0  0  0
  2  1  2  0  0  0  0
  3  4  1  0  0  0  0
  3  2  1  0  0  0  0
  4 21  1  0  0  0  0
  5 22  1  0  0  0  0
  5  4  2  0  0  0  0
  6  5  1  0  0  0  0
  7  6  2  0  0  0  0
  7  8  1  0  0  0  0
  8  3  2  0  0  0  0
  9  2  1  0  0  0  0
  9 10  2  0  0  0  0
 10 26  1  0  0  0  0
 11 10  1  0  0  0  0
 11 20  2  0  0  0  0
 12 11  1  0  0  0  0
 13 12  2  0  0  0  0
 13 14  1  0  0  0  0
 14 19  2  0  0  0  0
 15 14  1  0  0  0  0
 15 17  1  0  0  0  0
 15 16  1  0  0  0  0
 18 15  1  0  0  0  0
 19 20  1  0  0  0  0
 19 29  1  0  0  0  0
 20 30  1  0  0  0  0
 23  6  1  0  0  0  0
 24  7  1  0  0  0  0
 25  8  1  0  0  0  0
 27 12  1  0  0  0  0
 28 13  1  0  0  0  0
M  END
$$$$
