O=C(C1=CC=CC=C1)/N=C/C2=CC=CC=C2
 OpenBabel09032014123D

 27 28  0  0  0  0  0  0  0  0999 V2000
    1.5339    1.8241   -1.3322 O   0  0  0  0  0  0  0  0  0  0  0  0
    1.3190    0.8201   -0.6605 C   0  0  0  0  0  0  0  0  0  0  0  0
    2.4689   -0.0293   -0.2210 C   0  0  0  0  0  0  0  0  0  0  0  0
    2.2701   -1.1848    0.5474 C   0  0  0  0  0  0  0  0  0  0  0  0
    3.3615   -1.9607    0.9449 C   0  0  0  0  0  0  0  0  0  0  0  0
    4.6542   -1.5877    0.5782 C   0  0  0  0  0  0  0  0  0  0  0  0
    4.8605   -0.4397   -0.1861 C   0  0  0  0  0  0  0  0  0  0  0  0
    3.7717    0.3384   -0.5853 C   0  0  0  0  0  0  0  0  0  0  0  0
    0.0745    0.3865   -0.2592 N   0  0  0  0  0  0  0  0  0  0  0  0
   -0.9347    1.1069   -0.6287 C   0  0  0  0  0  0  0  0  0  0  0  0
   -2.3197    0.7483   -0.2624 C   0  0  0  0  0  0  0  0  0  0  0  0
   -2.5882   -0.3909    0.5020 C   0  0  0  0  0  0  0  0  0  0  0  0
   -3.9058   -0.7078    0.8348 C   0  0  0  0  0  0  0  0  0  0  0  0
   -4.9506    0.1112    0.4049 C   0  0  0  0  0  0  0  0  0  0  0  0
   -4.6814    1.2483   -0.3583 C   0  0  0  0  0  0  0  0  0  0  0  0
   -3.3649    1.5699   -0.6940 C   0  0  0  0  0  0  0  0  0  0  0  0
    1.2686   -1.4891    0.8414 H   0  0  0  0  0  0  0  0  0  0  0  0
    3.2016   -2.8559    1.5408 H   0  0  0  0  0  0  0  0  0  0  0  0
    5.5024   -2.1930    0.8886 H   0  0  0  0  0  0  0  0  0  0  0  0
    5.8684   -0.1492   -0.4718 H   0  0  0  0  0  0  0  0  0  0  0  0
    3.9429    1.2325   -1.1815 H   0  0  0  0  0  0  0  0  0  0  0  0
   -0.8153    2.0244   -1.2350 H   0  0  0  0  0  0  0  0  0  0  0  0
   -1.7791   -1.0330    0.8402 H   0  0  0  0  0  0  0  0  0  0  0  0
   -4.1161   -1.5933    1.4292 H   0  0  0  0  0  0  0  0  0  0  0  0
   -5.9764   -0.1378    0.6654 H   0  0  0  0  0  0  0  0  0  0  0  0
   -5.4981    1.8838   -0.6914 H   0  0  0  0  0  0  0  0  0  0  0  0
   -3.1678    2.4580   -1.2888 H   0  0  0  0  0  0  0  0  0  0  0  0
  1  2  2  0  0  0  0
  2  9  1  0  0  0  0
  2  3  1  0  0  0  0
  3  4  1  0  0  0  0
  4 17  1  0  0  0  0
  4  5  2  0  0  0  0
  5 18  1  0  0  0  0
  6 19  1  0  0  0  0
  6  5  1  0  0  0  0
  7  6  2  0  0  0  0
  8  3  2  0  0  0  0
  8  7  1  0  0  0  0
 10 11  1  0  0  0  0
 10  9  2  0  0  0  0
 11 12  2  0  0  0  0
 12 13  1  0  0  0  0
 12 23  1  0  0  0  0
 13 24  1  0  0  0  0
 14 25  1  0  0  0  0
 14 13  2  0  0  0  0
 15 14  1  0  0  0  0
 16 15  2  0  0  0  0
 16 11  1  0  0  0  0
 20  7  1  0  0  0  0
 21  8  1  0  0  0  0
 22 10  1  0  0  0  0
 26 15  1  0  0  0  0
 27 16  1  0  0  0  0
M  END
$$$$
