O=C(C1=CC=CC=C1)/N=C/C2=CC=C(Cl)C=C2Cl
 OpenBabel09032014123D

 27 28  0  0  0  0  0  0  0  0999 V2000
   -1.7460   -1.9687    0.7768 O   0  0  0  0  0  0  0  0  0  0  0  0
   -1.4243   -0.8635    0.3535 C   0  0  0  0  0  0  0  0  0  0  0  0
   -2.4851    0.1510    0.0678 C   0  0  0  0  0  0  0  0  0  0  0  0
   -2.1631    1.4264   -0.4169 C   0  0  0  0  0  0  0  0  0  0  0  0
   -3.1732    2.3555   -0.6756 C   0  0  0  0  0  0  0  0  0  0  0  0
   -4.5073    2.0167   -0.4520 C   0  0  0  0  0  0  0  0  0  0  0  0
   -4.8361    0.7502    0.0301 C   0  0  0  0  0  0  0  0  0  0  0  0
   -3.8287   -0.1813    0.2898 C   0  0  0  0  0  0  0  0  0  0  0  0
   -0.1309   -0.4547    0.1077 N   0  0  0  0  0  0  0  0  0  0  0  0
    0.8063   -1.3167    0.3476 C   0  0  0  0  0  0  0  0  0  0  0  0
    2.2322   -0.9827    0.1188 C   0  0  0  0  0  0  0  0  0  0  0  0
    2.5567    0.2943   -0.3666 C   0  0  0  0  0  0  0  0  0  0  0  0
    3.8885    0.6469   -0.5949 C   0  0  0  0  0  0  0  0  0  0  0  0
    4.8994   -0.2751   -0.3390 C   0  0  0  0  0  0  0  0  0  0  0  0
    6.5400    0.1580   -0.6198 Cl  0  0  0  0  0  0  0  0  0  0  0  0
    4.5922   -1.5459    0.1429 C   0  0  0  0  0  0  0  0  0  0  0  0
    3.2587   -1.9032    0.3730 C   0  0  0  0  0  0  0  0  0  0  0  0
    2.9663   -3.4978    0.9706 Cl  0  0  0  0  0  0  0  0  0  0  0  0
   -1.1289    1.7072   -0.5968 H   0  0  0  0  0  0  0  0  0  0  0  0
   -2.9187    3.3433   -1.0514 H   0  0  0  0  0  0  0  0  0  0  0  0
   -5.2924    2.7412   -0.6539 H   0  0  0  0  0  0  0  0  0  0  0  0
   -5.8765    0.4867    0.2042 H   0  0  0  0  0  0  0  0  0  0  0  0
   -4.0955   -1.1671    0.6659 H   0  0  0  0  0  0  0  0  0  0  0  0
    0.5746   -2.3262    0.7295 H   0  0  0  0  0  0  0  0  0  0  0  0
    1.7755    1.0240   -0.5706 H   0  0  0  0  0  0  0  0  0  0  0  0
    4.1258    1.6393   -0.9710 H   0  0  0  0  0  0  0  0  0  0  0  0
    5.3905   -2.2576    0.3391 H   0  0  0  0  0  0  0  0  0  0  0  0
  2  1  2  0  0  0  0
  3  8  1  0  0  0  0
  3  2  1  0  0  0  0
  4  3  2  0  0  0  0
  5  6  2  0  0  0  0
  5  4  1  0  0  0  0
  6  7  1  0  0  0  0
  7 22  1  0  0  0  0
  7  8  2  0  0  0  0
  8 23  1  0  0  0  0
  9 10  2  0  0  0  0
  9  2  1  0  0  0  0
 10 24  1  0  0  0  0
 11 10  1  0  0  0  0
 11 17  2  0  0  0  0
 12 11  1  0  0  0  0
 13 12  2  0  0  0  0
 13 14  1  0  0  0  0
 14 16  2  0  0  0  0
 15 14  1  0  0  0  0
 16 27  1  0  0  0  0
 16 17  1  0  0  0  0
 17 18  1  0  0  0  0
 19  4  1  0  0  0  0
 20  5  1  0  0  0  0
 21  6  1  0  0  0  0
 25 12  1  0  0  0  0
 26 13  1  0  0  0  0
M  END
$$$$
