O=C(C1=CC=CC=C1)/N=C/C2=CC=C(OC)C=C2
 OpenBabel09032014123D

 31 32  0  0  0  0  0  0  0  0999 V2000
   -2.4743    1.8565    1.2472 O   0  0  0  0  0  0  0  0  0  0  0  0
   -2.2741    0.7799    0.6938 C   0  0  0  0  0  0  0  0  0  0  0  0
   -3.4264   -0.1378    0.4352 C   0  0  0  0  0  0  0  0  0  0  0  0
   -3.2445   -1.3771   -0.1941 C   0  0  0  0  0  0  0  0  0  0  0  0
   -4.3372   -2.2159   -0.4241 C   0  0  0  0  0  0  0  0  0  0  0  0
   -5.6150   -1.8225   -0.0278 C   0  0  0  0  0  0  0  0  0  0  0  0
   -5.8049   -0.5913    0.5988 C   0  0  0  0  0  0  0  0  0  0  0  0
   -4.7144    0.2499    0.8304 C   0  0  0  0  0  0  0  0  0  0  0  0
   -1.0442    0.3219    0.2739 N   0  0  0  0  0  0  0  0  0  0  0  0
   -0.0348    1.1019    0.4889 C   0  0  0  0  0  0  0  0  0  0  0  0
    1.3360    0.7272    0.0866 C   0  0  0  0  0  0  0  0  0  0  0  0
    1.5935   -0.4905   -0.5443 C   0  0  0  0  0  0  0  0  0  0  0  0
    2.9013   -0.8150   -0.9121 C   0  0  0  0  0  0  0  0  0  0  0  0
    3.9555    0.0669   -0.6551 C   0  0  0  0  0  0  0  0  0  0  0  0
    5.1825   -0.3751   -1.0667 O   0  0  0  0  0  0  0  0  0  0  0  0
    6.2909    0.4838   -0.8296 C   0  0  0  0  0  0  0  0  0  0  0  0
    3.6908    1.2839   -0.0233 C   0  0  0  0  0  0  0  0  0  0  0  0
    2.3822    1.6153    0.3480 C   0  0  0  0  0  0  0  0  0  0  0  0
   -2.2553   -1.6990   -0.5093 H   0  0  0  0  0  0  0  0  0  0  0  0
   -4.1897   -3.1758   -0.9125 H   0  0  0  0  0  0  0  0  0  0  0  0
   -6.4644   -2.4768   -0.2077 H   0  0  0  0  0  0  0  0  0  0  0  0
   -6.8013   -0.2850    0.9076 H   0  0  0  0  0  0  0  0  0  0  0  0
   -4.8726    1.2087    1.3200 H   0  0  0  0  0  0  0  0  0  0  0  0
   -0.1431    2.0859    0.9826 H   0  0  0  0  0  0  0  0  0  0  0  0
    0.7879   -1.1895   -0.7529 H   0  0  0  0  0  0  0  0  0  0  0  0
    3.1002   -1.7645   -1.4038 H   0  0  0  0  0  0  0  0  0  0  0  0
    7.1869   -0.0127   -1.2144 H   0  0  0  0  0  0  0  0  0  0  0  0
    6.4375    0.6518    0.2424 H   0  0  0  0  0  0  0  0  0  0  0  0
    6.1781    1.4310   -1.3672 H   0  0  0  0  0  0  0  0  0  0  0  0
    4.4786    1.9972    0.1951 H   0  0  0  0  0  0  0  0  0  0  0  0
    2.1943    2.5670    0.8389 H   0  0  0  0  0  0  0  0  0  0  0  0
  2  1  2  0  0  0  0
  3  2  1  0  0  0  0
  3  8  2  0  0  0  0
  4  3  1  0  0  0  0
  5  4  2  0  0  0  0
  5  6  1  0  0  0  0
  6  7  2  0  0  0  0
  7  8  1  0  0  0  0
  7 22  1  0  0  0  0
  8 23  1  0  0  0  0
  9 10  2  0  0  0  0
  9  2  1  0  0  0  0
 10 24  1  0  0  0  0
 11 18  1  0  0  0  0
 11 10  1  0  0  0  0
 12 11  2  0  0  0  0
 13 14  2  0  0  0  0
 13 12  1  0  0  0  0
 14 17  1  0  0  0  0
 15 16  1  0  0  0  0
 15 14  1  0  0  0  0
 16 28  1  0  0  0  0
 17 30  1  0  0  0  0
 17 18  2  0  0  0  0
 18 31  1  0  0  0  0
 19  4  1  0  0  0  0
 20  5  1  0  0  0  0
 21  6  1  0  0  0  0
 25 12  1  0  0  0  0
 26 13  1  0  0  0  0
 27 16  1  0  0  0  0
 29 16  1  0  0  0  0
M  END
$$$$
