O=C(C1=CC=CC=C1)/N=C/C2=CC=CC=C2
 OpenBabel09032014123D

 27 28  0  0  0  0  0  0  0  0999 V2000
   -1.3480   -0.1382    2.3696 O   0  0  0  0  0  0  0  0  0  0  0  0
   -1.2307   -0.0202    1.1539 C   0  0  0  0  0  0  0  0  0  0  0  0
   -2.4531    0.1684    0.3132 C   0  0  0  0  0  0  0  0  0  0  0  0
   -2.3663    0.3074   -1.0791 C   0  0  0  0  0  0  0  0  0  0  0  0
   -3.5237    0.4824   -1.8414 C   0  0  0  0  0  0  0  0  0  0  0  0
   -4.7711    0.5194   -1.2189 C   0  0  0  0  0  0  0  0  0  0  0  0
   -4.8661    0.3818    0.1655 C   0  0  0  0  0  0  0  0  0  0  0  0
   -3.7111    0.2067    0.9308 C   0  0  0  0  0  0  0  0  0  0  0  0
   -0.0370   -0.0460    0.4668 N   0  0  0  0  0  0  0  0  0  0  0  0
    1.0335   -0.2082    1.1751 C   0  0  0  0  0  0  0  0  0  0  0  0
    2.3738   -0.2532    0.5567 C   0  0  0  0  0  0  0  0  0  0  0  0
    2.5315   -0.1209   -0.8260 C   0  0  0  0  0  0  0  0  0  0  0  0
    3.8088   -0.1670   -1.3857 C   0  0  0  0  0  0  0  0  0  0  0  0
    4.9241   -0.3445   -0.5660 C   0  0  0  0  0  0  0  0  0  0  0  0
    4.7656   -0.4765    0.8143 C   0  0  0  0  0  0  0  0  0  0  0  0
    3.4897   -0.4311    1.3794 C   0  0  0  0  0  0  0  0  0  0  0  0
   -1.4014    0.2808   -1.5794 H   0  0  0  0  0  0  0  0  0  0  0  0
   -3.4506    0.5897   -2.9208 H   0  0  0  0  0  0  0  0  0  0  0  0
   -5.6707    0.6557   -1.8140 H   0  0  0  0  0  0  0  0  0  0  0  0
   -5.8387    0.4107    0.6504 H   0  0  0  0  0  0  0  0  0  0  0  0
   -3.7955    0.1003    2.0105 H   0  0  0  0  0  0  0  0  0  0  0  0
    1.0027   -0.3211    2.2751 H   0  0  0  0  0  0  0  0  0  0  0  0
    1.6671    0.0176   -1.4701 H   0  0  0  0  0  0  0  0  0  0  0  0
    3.9330   -0.0643   -2.4608 H   0  0  0  0  0  0  0  0  0  0  0  0
    5.9184   -0.3801   -1.0045 H   0  0  0  0  0  0  0  0  0  0  0  0
    5.6369   -0.6146    1.4495 H   0  0  0  0  0  0  0  0  0  0  0  0
    3.3790   -0.5351    2.4556 H   0  0  0  0  0  0  0  0  0  0  0  0
  2  1  2  0  0  0  0
  3  8  1  0  0  0  0
  3  2  1  0  0  0  0
  4  3  2  0  0  0  0
  5  6  2  0  0  0  0
  5  4  1  0  0  0  0
  6  7  1  0  0  0  0
  7 20  1  0  0  0  0
  7  8  2  0  0  0  0
  8 21  1  0  0  0  0
  9  2  1  0  0  0  0
  9 10  2  0  0  0  0
 10 22  1  0  0  0  0
 11 10  1  0  0  0  0
 11 16  2  0  0  0  0
 12 11  1  0  0  0  0
 13 12  2  0  0  0  0
 13 14  1  0  0  0  0
 14 15  2  0  0  0  0
 15 16  1  0  0  0  0
 15 26  1  0  0  0  0
 16 27  1  0  0  0  0
 17  4  1  0  0  0  0
 18  5  1  0  0  0  0
 19  6  1  0  0  0  0
 23 12  1  0  0  0  0
 24 13  1  0  0  0  0
 25 14  1  0  0  0  0
M  END
$$$$
