O=C(C1=CC=CC=C1)/N=C/C2=CC=CC3=C2C=CC=C3
 OpenBabel09032014123D

 33 35  0  0  0  0  0  0  0  0999 V2000
    2.2262    0.3753   -1.8855 O   0  0  0  0  0  0  0  0  0  0  0  0
    2.1569   -0.0837   -0.7497 C   0  0  0  0  0  0  0  0  0  0  0  0
    3.3961   -0.5970   -0.0884 C   0  0  0  0  0  0  0  0  0  0  0  0
    3.3633   -1.1297    1.2079 C   0  0  0  0  0  0  0  0  0  0  0  0
    4.5350   -1.6027    1.8032 C   0  0  0  0  0  0  0  0  0  0  0  0
    5.7431   -1.5463    1.1088 C   0  0  0  0  0  0  0  0  0  0  0  0
    5.7843   -1.0178   -0.1810 C   0  0  0  0  0  0  0  0  0  0  0  0
    4.6148   -0.5441   -0.7794 C   0  0  0  0  0  0  0  0  0  0  0  0
    1.0046   -0.1739    0.0005 N   0  0  0  0  0  0  0  0  0  0  0  0
   -0.0846    0.2643   -0.5498 C   0  0  0  0  0  0  0  0  0  0  0  0
   -1.3911    0.2215    0.1576 C   0  0  0  0  0  0  0  0  0  0  0  0
   -1.4037   -0.3155    1.4552 C   0  0  0  0  0  0  0  0  0  0  0  0
   -2.5887   -0.3875    2.1764 C   0  0  0  0  0  0  0  0  0  0  0  0
   -3.7705    0.0764    1.6071 C   0  0  0  0  0  0  0  0  0  0  0  0
   -3.7882    0.6181    0.3123 C   0  0  0  0  0  0  0  0  0  0  0  0
   -2.5896    0.7025   -0.4452 C   0  0  0  0  0  0  0  0  0  0  0  0
   -2.6879    1.2622   -1.7459 C   0  0  0  0  0  0  0  0  0  0  0  0
   -3.9039    1.7128   -2.2674 C   0  0  0  0  0  0  0  0  0  0  0  0
   -5.0606    1.6196   -1.5083 C   0  0  0  0  0  0  0  0  0  0  0  0
   -5.0016    1.0759   -0.2276 C   0  0  0  0  0  0  0  0  0  0  0  0
    2.4292   -1.1806    1.7620 H   0  0  0  0  0  0  0  0  0  0  0  0
    4.5035   -2.0148    2.8087 H   0  0  0  0  0  0  0  0  0  0  0  0
    6.6541   -1.9149    1.5739 H   0  0  0  0  0  0  0  0  0  0  0  0
    6.7262   -0.9740   -0.7221 H   0  0  0  0  0  0  0  0  0  0  0  0
    4.6571   -0.1335   -1.7862 H   0  0  0  0  0  0  0  0  0  0  0  0
   -0.0702    0.6846   -1.5674 H   0  0  0  0  0  0  0  0  0  0  0  0
   -0.4876   -0.6819    1.9127 H   0  0  0  0  0  0  0  0  0  0  0  0
   -2.5910   -0.8043    3.1802 H   0  0  0  0  0  0  0  0  0  0  0  0
   -4.6880    0.0109    2.1892 H   0  0  0  0  0  0  0  0  0  0  0  0
   -1.8169    1.3615   -2.3877 H   0  0  0  0  0  0  0  0  0  0  0  0
   -3.9409    2.1360   -3.2682 H   0  0  0  0  0  0  0  0  0  0  0  0
   -6.0083    1.9687   -1.9096 H   0  0  0  0  0  0  0  0  0  0  0  0
   -5.9208    1.0117    0.3518 H   0  0  0  0  0  0  0  0  0  0  0  0
  1  2  2  0  0  0  0
  2  3  1  0  0  0  0
  2  9  1  0  0  0  0
  3  4  2  0  0  0  0
  4 21  1  0  0  0  0
  4  5  1  0  0  0  0
  5 22  1  0  0  0  0
  6 23  1  0  0  0  0
  6  5  2  0  0  0  0
  7  6  1  0  0  0  0
  8  7  2  0  0  0  0
  8  3  1  0  0  0  0
 10  9  2  0  0  0  0
 10 11  1  0  0  0  0
 11 12  1  0  0  0  0
 12 27  1  0  0  0  0
 12 13  2  0  0  0  0
 13 28  1  0  0  0  0
 14 13  1  0  0  0  0
 14 29  1  0  0  0  0
 15 14  2  0  0  0  0
 16 11  2  0  0  0  0
 16 15  1  0  0  0  0
 17 16  1  0  0  0  0
 18 17  2  0  0  0  0
 18 19  1  0  0  0  0
 19 20  2  0  0  0  0
 20 15  1  0  0  0  0
 20 33  1  0  0  0  0
 24  7  1  0  0  0  0
 25  8  1  0  0  0  0
 26 10  1  0  0  0  0
 30 17  1  0  0  0  0
 31 18  1  0  0  0  0
 32 19  1  0  0  0  0
M  END
$$$$
