O=C(C1=CC=CC=C1)/N=C/C2=CC=C(C(F)(F)F)C=C2
 OpenBabel09032014123D

 30 31  0  0  0  0  0  0  0  0999 V2000
    2.0646    0.1565   -2.6246 O   0  0  0  0  0  0  0  0  0  0  0  0
    1.9327    0.1557   -1.4052 C   0  0  0  0  0  0  0  0  0  0  0  0
    3.1403    0.2700   -0.5309 C   0  0  0  0  0  0  0  0  0  0  0  0
    4.4075    0.3775   -1.1200 C   0  0  0  0  0  0  0  0  0  0  0  0
    5.5473    0.4853   -0.3204 C   0  0  0  0  0  0  0  0  0  0  0  0
    5.4275    0.4862    1.0691 C   0  0  0  0  0  0  0  0  0  0  0  0
    4.1701    0.3796    1.6628 C   0  0  0  0  0  0  0  0  0  0  0  0
    3.0276    0.2716    0.8668 C   0  0  0  0  0  0  0  0  0  0  0  0
    0.7325    0.0557   -0.7381 N   0  0  0  0  0  0  0  0  0  0  0  0
   -0.3310   -0.0458   -1.4662 C   0  0  0  0  0  0  0  0  0  0  0  0
   -1.6701   -0.1586   -0.8542 C   0  0  0  0  0  0  0  0  0  0  0  0
   -1.8225   -0.1567    0.5350 C   0  0  0  0  0  0  0  0  0  0  0  0
   -3.0964   -0.2639    1.0959 C   0  0  0  0  0  0  0  0  0  0  0  0
   -4.2286   -0.3809    0.2743 C   0  0  0  0  0  0  0  0  0  0  0  0
   -5.6073   -0.4738    0.8821 C   0  0  0  0  0  0  0  0  0  0  0  0
   -6.1768    0.7496    1.0599 F   0  0  0  0  0  0  0  0  0  0  0  0
   -6.4803   -1.1856    0.1157 F   0  0  0  0  0  0  0  0  0  0  0  0
   -5.6141   -1.0727    2.1054 F   0  0  0  0  0  0  0  0  0  0  0  0
   -4.0615   -0.3726   -1.1208 C   0  0  0  0  0  0  0  0  0  0  0  0
   -2.7873   -0.2652   -1.6849 C   0  0  0  0  0  0  0  0  0  0  0  0
    4.5109    0.3778   -2.2032 H   0  0  0  0  0  0  0  0  0  0  0  0
    6.5283    0.5686   -0.7823 H   0  0  0  0  0  0  0  0  0  0  0  0
    6.3156    0.5701    1.6906 H   0  0  0  0  0  0  0  0  0  0  0  0
    4.0773    0.3803    2.7460 H   0  0  0  0  0  0  0  0  0  0  0  0
    2.0550    0.1893    1.3454 H   0  0  0  0  0  0  0  0  0  0  0  0
   -0.2952   -0.0536   -2.5718 H   0  0  0  0  0  0  0  0  0  0  0  0
   -0.9554   -0.0705    1.1859 H   0  0  0  0  0  0  0  0  0  0  0  0
   -3.2015   -0.2576    2.1803 H   0  0  0  0  0  0  0  0  0  0  0  0
   -4.9290   -0.4520   -1.7754 H   0  0  0  0  0  0  0  0  0  0  0  0
   -2.6800   -0.2645   -2.7670 H   0  0  0  0  0  0  0  0  0  0  0  0
  1  2  2  0  0  0  0
  2  9  1  0  0  0  0
  2  3  1  0  0  0  0
  3  8  1  0  0  0  0
  4  3  2  0  0  0  0
  4  5  1  0  0  0  0
  5  6  2  0  0  0  0
  6  7  1  0  0  0  0
  6 23  1  0  0  0  0
  7 24  1  0  0  0  0
  8 25  1  0  0  0  0
  8  7  2  0  0  0  0
 10 11  1  0  0  0  0
 10  9  2  0  0  0  0
 11 12  2  0  0  0  0
 12 13  1  0  0  0  0
 12 27  1  0  0  0  0
 13 28  1  0  0  0  0
 14 15  1  0  0  0  0
 14 13  2  0  0  0  0
 15 16  1  0  0  0  0
 15 18  1  0  0  0  0
 17 15  1  0  0  0  0
 19 14  1  0  0  0  0
 20 19  2  0  0  0  0
 20 11  1  0  0  0  0
 21  4  1  0  0  0  0
 22  5  1  0  0  0  0
 26 10  1  0  0  0  0
 29 19  1  0  0  0  0
 30 20  1  0  0  0  0
M  END
$$$$
