O=C(C1=CC=CC=C1)/N=C/C2=CC=C(OC)C=C2
 OpenBabel09032014123D

 31 32  0  0  0  0  0  0  0  0999 V2000
   -2.3093   -2.4326    1.2207 O   0  0  0  0  0  0  0  0  0  0  0  0
   -2.1331   -1.2967    0.7916 C   0  0  0  0  0  0  0  0  0  0  0  0
   -3.2997   -0.3684    0.6726 C   0  0  0  0  0  0  0  0  0  0  0  0
   -3.1457    0.9377    0.1877 C   0  0  0  0  0  0  0  0  0  0  0  0
   -4.2513    1.7849    0.0863 C   0  0  0  0  0  0  0  0  0  0  0  0
   -5.5143    1.3333    0.4678 C   0  0  0  0  0  0  0  0  0  0  0  0
   -5.6765    0.0354    0.9512 C   0  0  0  0  0  0  0  0  0  0  0  0
   -4.5730   -0.8144    1.0539 C   0  0  0  0  0  0  0  0  0  0  0  0
   -0.9191   -0.7788    0.3956 N   0  0  0  0  0  0  0  0  0  0  0  0
    0.1021   -1.5674    0.4914 C   0  0  0  0  0  0  0  0  0  0  0  0
    1.4580   -1.1326    0.0994 C   0  0  0  0  0  0  0  0  0  0  0  0
    1.6874    0.1550   -0.3922 C   0  0  0  0  0  0  0  0  0  0  0  0
    2.9805    0.5463   -0.7579 C   0  0  0  0  0  0  0  0  0  0  0  0
    4.0453   -0.3479   -0.6328 C   0  0  0  0  0  0  0  0  0  0  0  0
    5.3509   -0.0950   -0.9522 O   0  0  0  0  0  0  0  0  0  0  0  0
    5.6503    1.1997   -1.4587 C   0  0  0  0  0  0  0  0  0  0  0  0
    3.8055   -1.6346   -0.1396 C   0  0  0  0  0  0  0  0  0  0  0  0
    2.5171   -2.0316    0.2272 C   0  0  0  0  0  0  0  0  0  0  0  0
   -2.1684    1.3055   -0.1139 H   0  0  0  0  0  0  0  0  0  0  0  0
   -4.1255    2.7968   -0.2905 H   0  0  0  0  0  0  0  0  0  0  0  0
   -6.3739    1.9943    0.3881 H   0  0  0  0  0  0  0  0  0  0  0  0
   -6.6614   -0.3163    1.2485 H   0  0  0  0  0  0  0  0  0  0  0  0
   -4.7095   -1.8255    1.4323 H   0  0  0  0  0  0  0  0  0  0  0  0
    0.0157   -2.6034    0.8697 H   0  0  0  0  0  0  0  0  0  0  0  0
    0.8660    0.8599   -0.4940 H   0  0  0  0  0  0  0  0  0  0  0  0
    3.1184    1.5541   -1.1353 H   0  0  0  0  0  0  0  0  0  0  0  0
    6.7247    1.2388   -1.6623 H   0  0  0  0  0  0  0  0  0  0  0  0
    5.4229    1.9750   -0.7195 H   0  0  0  0  0  0  0  0  0  0  0  0
    5.1256    1.3856   -2.4017 H   0  0  0  0  0  0  0  0  0  0  0  0
    4.6328   -2.3338   -0.0409 H   0  0  0  0  0  0  0  0  0  0  0  0
    2.3575   -3.0369    0.6076 H   0  0  0  0  0  0  0  0  0  0  0  0
  2  1  2  0  0  0  0
  3  2  1  0  0  0  0
  3  8  2  0  0  0  0
  4  3  1  0  0  0  0
  5  4  2  0  0  0  0
  5  6  1  0  0  0  0
  6  7  2  0  0  0  0
  7  8  1  0  0  0  0
  7 22  1  0  0  0  0
  8 23  1  0  0  0  0
  9 10  2  0  0  0  0
  9  2  1  0  0  0  0
 10 24  1  0  0  0  0
 11 18  1  0  0  0  0
 11 10  1  0  0  0  0
 12 11  2  0  0  0  0
 13 14  2  0  0  0  0
 13 12  1  0  0  0  0
 14 17  1  0  0  0  0
 15 14  1  0  0  0  0
 16 15  1  0  0  0  0
 16 28  1  0  0  0  0
 17 30  1  0  0  0  0
 17 18  2  0  0  0  0
 18 31  1  0  0  0  0
 19  4  1  0  0  0  0
 20  5  1  0  0  0  0
 21  6  1  0  0  0  0
 25 12  1  0  0  0  0
 26 13  1  0  0  0  0
 27 16  1  0  0  0  0
 29 16  1  0  0  0  0
M  END
$$$$
