O=C(C1=CC=CC=C1)/N=C/C2=CC=C(C(F)(F)F)C=C2
 OpenBabel09032014123D

 30 31  0  0  0  0  0  0  0  0999 V2000
   -1.9230   -2.1720   -1.4900 O   0  0  0  0  0  0  0  0  0  0  0  0
   -1.8605   -1.1391   -0.8315 C   0  0  0  0  0  0  0  0  0  0  0  0
   -3.1192   -0.4272   -0.4513 C   0  0  0  0  0  0  0  0  0  0  0  0
   -4.3544   -0.9532   -0.8538 C   0  0  0  0  0  0  0  0  0  0  0  0
   -5.5411   -0.3031   -0.5085 C   0  0  0  0  0  0  0  0  0  0  0  0
   -5.5002    0.8736    0.2390 C   0  0  0  0  0  0  0  0  0  0  0  0
   -4.2751    1.4034    0.6432 C   0  0  0  0  0  0  0  0  0  0  0  0
   -3.0859    0.7562    0.3000 C   0  0  0  0  0  0  0  0  0  0  0  0
   -0.6968   -0.5492   -0.3916 N   0  0  0  0  0  0  0  0  0  0  0  0
    0.4096   -1.1401   -0.7050 C   0  0  0  0  0  0  0  0  0  0  0  0
    1.7153   -0.5936   -0.2847 C   0  0  0  0  0  0  0  0  0  0  0  0
    1.7883    0.5816    0.4681 C   0  0  0  0  0  0  0  0  0  0  0  0
    3.0318    1.0834    0.8568 C   0  0  0  0  0  0  0  0  0  0  0  0
    4.2134    0.4195    0.4913 C   0  0  0  0  0  0  0  0  0  0  0  0
    5.5559    0.9510    0.9318 C   0  0  0  0  0  0  0  0  0  0  0  0
    5.9433    0.4431    2.1338 F   0  0  0  0  0  0  0  0  0  0  0  0
    5.5757    2.3056    1.0725 F   0  0  0  0  0  0  0  0  0  0  0  0
    6.5588    0.6539    0.0589 F   0  0  0  0  0  0  0  0  0  0  0  0
    4.1248   -0.7658   -0.2581 C   0  0  0  0  0  0  0  0  0  0  0  0
    2.8812   -1.2702   -0.6485 C   0  0  0  0  0  0  0  0  0  0  0  0
   -4.3964   -1.8708   -1.4372 H   0  0  0  0  0  0  0  0  0  0  0  0
   -6.4971   -0.7152   -0.8230 H   0  0  0  0  0  0  0  0  0  0  0  0
   -6.4247    1.3789    0.5072 H   0  0  0  0  0  0  0  0  0  0  0  0
   -4.2438    2.3206    1.2258 H   0  0  0  0  0  0  0  0  0  0  0  0
   -2.1393    1.1823    0.6229 H   0  0  0  0  0  0  0  0  0  0  0  0
    0.4368   -2.0741   -1.2970 H   0  0  0  0  0  0  0  0  0  0  0  0
    0.8827    1.1102    0.7565 H   0  0  0  0  0  0  0  0  0  0  0  0
    3.0744    1.9985    1.4465 H   0  0  0  0  0  0  0  0  0  0  0  0
    5.0301   -1.3012   -0.5428 H   0  0  0  0  0  0  0  0  0  0  0  0
    2.8353   -2.1871   -1.2313 H   0  0  0  0  0  0  0  0  0  0  0  0
  1  2  2  0  0  0  0
  2  3  1  0  0  0  0
  2  9  1  0  0  0  0
  3  8  2  0  0  0  0
  4  5  2  0  0  0  0
  4  3  1  0  0  0  0
  5  6  1  0  0  0  0
  6 23  1  0  0  0  0
  6  7  2  0  0  0  0
  7 24  1  0  0  0  0
  8 25  1  0  0  0  0
  8  7  1  0  0  0  0
 10  9  2  0  0  0  0
 10 11  1  0  0  0  0
 11 12  1  0  0  0  0
 12 27  1  0  0  0  0
 12 13  2  0  0  0  0
 13 28  1  0  0  0  0
 14 13  1  0  0  0  0
 14 15  1  0  0  0  0
 15 17  1  0  0  0  0
 15 16  1  0  0  0  0
 18 15  1  0  0  0  0
 19 14  2  0  0  0  0
 20 11  2  0  0  0  0
 20 19  1  0  0  0  0
 21  4  1  0  0  0  0
 22  5  1  0  0  0  0
 26 10  1  0  0  0  0
 29 19  1  0  0  0  0
 30 20  1  0  0  0  0
M  END
$$$$
