O=C(C1=CC=CC=C1)/N=C/C2=CC=CC3=C2C=CC=C3
 OpenBabel09032014123D

 33 35  0  0  0  0  0  0  0  0999 V2000
    1.9334    2.1478   -0.7059 O   0  0  0  0  0  0  0  0  0  0  0  0
    2.0505    0.9592   -0.4250 C   0  0  0  0  0  0  0  0  0  0  0  0
    3.4130    0.3435   -0.3912 C   0  0  0  0  0  0  0  0  0  0  0  0
    3.5933   -1.0103   -0.0753 C   0  0  0  0  0  0  0  0  0  0  0  0
    4.8766   -1.5613   -0.0506 C   0  0  0  0  0  0  0  0  0  0  0  0
    5.9842   -0.7650   -0.3406 C   0  0  0  0  0  0  0  0  0  0  0  0
    5.8133    0.5826   -0.6558 C   0  0  0  0  0  0  0  0  0  0  0  0
    4.5317    1.1368   -0.6814 C   0  0  0  0  0  0  0  0  0  0  0  0
    1.0085    0.1081   -0.1272 N   0  0  0  0  0  0  0  0  0  0  0  0
   -0.1839    0.6169   -0.1494 C   0  0  0  0  0  0  0  0  0  0  0  0
   -1.3888   -0.1987    0.1537 C   0  0  0  0  0  0  0  0  0  0  0  0
   -1.1878   -1.5527    0.4679 C   0  0  0  0  0  0  0  0  0  0  0  0
   -2.2676   -2.3755    0.7620 C   0  0  0  0  0  0  0  0  0  0  0  0
   -3.5568   -1.8524    0.7446 C   0  0  0  0  0  0  0  0  0  0  0  0
   -3.7880   -0.5032    0.4341 C   0  0  0  0  0  0  0  0  0  0  0  0
   -2.7005    0.3583    0.1299 C   0  0  0  0  0  0  0  0  0  0  0  0
   -3.0142    1.7089   -0.1738 C   0  0  0  0  0  0  0  0  0  0  0  0
   -4.3301    2.1802   -0.1762 C   0  0  0  0  0  0  0  0  0  0  0  0
   -5.3750    1.3194    0.1242 C   0  0  0  0  0  0  0  0  0  0  0  0
   -5.1043   -0.0126    0.4270 C   0  0  0  0  0  0  0  0  0  0  0  0
    2.7398   -1.6440    0.1531 H   0  0  0  0  0  0  0  0  0  0  0  0
    5.0104   -2.6118    0.1950 H   0  0  0  0  0  0  0  0  0  0  0  0
    6.9823   -1.1956   -0.3208 H   0  0  0  0  0  0  0  0  0  0  0  0
    6.6769    1.2031   -0.8818 H   0  0  0  0  0  0  0  0  0  0  0  0
    4.4087    2.1894   -0.9285 H   0  0  0  0  0  0  0  0  0  0  0  0
   -0.3370    1.6790   -0.3963 H   0  0  0  0  0  0  0  0  0  0  0  0
   -0.1858   -1.9751    0.4853 H   0  0  0  0  0  0  0  0  0  0  0  0
   -2.1045   -3.4224    1.0042 H   0  0  0  0  0  0  0  0  0  0  0  0
   -4.3890   -2.5142    0.9780 H   0  0  0  0  0  0  0  0  0  0  0  0
   -2.2389    2.4302   -0.4169 H   0  0  0  0  0  0  0  0  0  0  0  0
   -4.5324    3.2217   -0.4138 H   0  0  0  0  0  0  0  0  0  0  0  0
   -6.3997    1.6814    0.1235 H   0  0  0  0  0  0  0  0  0  0  0  0
   -5.9386   -0.6717    0.6600 H   0  0  0  0  0  0  0  0  0  0  0  0
  1  2  2  0  0  0  0
  2  3  1  0  0  0  0
  2  9  1  0  0  0  0
  3  4  2  0  0  0  0
  4  5  1  0  0  0  0
  4 21  1  0  0  0  0
  5 22  1  0  0  0  0
  6 23  1  0  0  0  0
  6  5  2  0  0  0  0
  7  6  1  0  0  0  0
  8  7  2  0  0  0  0
  8  3  1  0  0  0  0
 10  9  2  0  0  0  0
 10 11  1  0  0  0  0
 11 12  1  0  0  0  0
 12 27  1  0  0  0  0
 12 13  2  0  0  0  0
 13 28  1  0  0  0  0
 14 13  1  0  0  0  0
 14 29  1  0  0  0  0
 15 14  2  0  0  0  0
 16 11  2  0  0  0  0
 16 15  1  0  0  0  0
 17 16  1  0  0  0  0
 18 17  2  0  0  0  0
 18 19  1  0  0  0  0
 19 20  2  0  0  0  0
 20 15  1  0  0  0  0
 20 33  1  0  0  0  0
 24  7  1  0  0  0  0
 25  8  1  0  0  0  0
 26 10  1  0  0  0  0
 30 17  1  0  0  0  0
 31 18  1  0  0  0  0
 32 19  1  0  0  0  0
M  END
$$$$
