O=C(C1=CC=CC=C1)/N=C/C2=CC=C(Cl)C=C2Cl
 OpenBabel09032014123D

 27 28  0  0  0  0  0  0  0  0999 V2000
    1.2434   -2.4377   -0.4395 O   0  0  0  0  0  0  0  0  0  0  0  0
    1.1859   -1.2294   -0.2375 C   0  0  0  0  0  0  0  0  0  0  0  0
    2.4522   -0.4500   -0.0790 C   0  0  0  0  0  0  0  0  0  0  0  0
    2.4338    0.9324    0.1532 C   0  0  0  0  0  0  0  0  0  0  0  0
    3.6311    1.6367    0.2976 C   0  0  0  0  0  0  0  0  0  0  0  0
    4.8505    0.9658    0.2110 C   0  0  0  0  0  0  0  0  0  0  0  0
    4.8776   -0.4092   -0.0197 C   0  0  0  0  0  0  0  0  0  0  0  0
    3.6824   -1.1166   -0.1646 C   0  0  0  0  0  0  0  0  0  0  0  0
    0.0222   -0.4968   -0.1393 N   0  0  0  0  0  0  0  0  0  0  0  0
   -1.0886   -1.1502   -0.2732 C   0  0  0  0  0  0  0  0  0  0  0  0
   -2.3984   -0.4619   -0.1857 C   0  0  0  0  0  0  0  0  0  0  0  0
   -2.4190    0.9227    0.0469 C   0  0  0  0  0  0  0  0  0  0  0  0
   -3.6330    1.6072    0.1358 C   0  0  0  0  0  0  0  0  0  0  0  0
   -4.8294    0.9103   -0.0073 C   0  0  0  0  0  0  0  0  0  0  0  0
   -6.3252    1.7522    0.1021 Cl  0  0  0  0  0  0  0  0  0  0  0  0
   -4.8243   -0.4638   -0.2384 C   0  0  0  0  0  0  0  0  0  0  0  0
   -3.6097   -1.1534   -0.3282 C   0  0  0  0  0  0  0  0  0  0  0  0
   -3.6938   -2.8549   -0.6163 Cl  0  0  0  0  0  0  0  0  0  0  0  0
    1.4927    1.4710    0.2236 H   0  0  0  0  0  0  0  0  0  0  0  0
    3.6119    2.7087    0.4776 H   0  0  0  0  0  0  0  0  0  0  0  0
    5.7816    1.5156    0.3237 H   0  0  0  0  0  0  0  0  0  0  0  0
    5.8287   -0.9317   -0.0871 H   0  0  0  0  0  0  0  0  0  0  0  0
    3.7141   -2.1895   -0.3444 H   0  0  0  0  0  0  0  0  0  0  0  0
   -1.0966   -2.2387   -0.4566 H   0  0  0  0  0  0  0  0  0  0  0  0
   -1.4904    1.4788    0.1605 H   0  0  0  0  0  0  0  0  0  0  0  0
   -3.6344    2.6796    0.3162 H   0  0  0  0  0  0  0  0  0  0  0  0
   -5.7653   -0.9973   -0.3484 H   0  0  0  0  0  0  0  0  0  0  0  0
  1  2  2  0  0  0  0
  2  9  1  0  0  0  0
  2  3  1  0  0  0  0
  3  4  1  0  0  0  0
  4 19  1  0  0  0  0
  4  5  2  0  0  0  0
  5 20  1  0  0  0  0
  6  5  1  0  0  0  0
  6 21  1  0  0  0  0
  7  6  2  0  0  0  0
  8  3  2  0  0  0  0
  8  7  1  0  0  0  0
 10 11  1  0  0  0  0
 10  9  2  0  0  0  0
 11 12  2  0  0  0  0
 12 13  1  0  0  0  0
 12 25  1  0  0  0  0
 13 26  1  0  0  0  0
 14 15  1  0  0  0  0
 14 13  2  0  0  0  0
 16 14  1  0  0  0  0
 17 16  2  0  0  0  0
 17 11  1  0  0  0  0
 18 17  1  0  0  0  0
 22  7  1  0  0  0  0
 23  8  1  0  0  0  0
 24 10  1  0  0  0  0
 27 16  1  0  0  0  0
M  END
$$$$
