O=C(C1=CC=CC=C1)/N=C/C2=CC=CC=C2
 OpenBabel09032014123D

 27 28  0  0  0  0  0  0  0  0999 V2000
   -1.6834   -0.1664   -2.0855 O   0  0  0  0  0  0  0  0  0  0  0  0
   -1.3714   -0.2235   -0.9002 C   0  0  0  0  0  0  0  0  0  0  0  0
   -2.4077   -0.5863    0.1152 C   0  0  0  0  0  0  0  0  0  0  0  0
   -2.0961   -0.6634    1.4798 C   0  0  0  0  0  0  0  0  0  0  0  0
   -3.0828   -1.0045    2.4078 C   0  0  0  0  0  0  0  0  0  0  0  0
   -4.3831   -1.2698    1.9791 C   0  0  0  0  0  0  0  0  0  0  0  0
   -4.7013   -1.1952    0.6234 C   0  0  0  0  0  0  0  0  0  0  0  0
   -3.7174   -0.8545   -0.3072 C   0  0  0  0  0  0  0  0  0  0  0  0
   -0.1120    0.0239   -0.3995 N   0  0  0  0  0  0  0  0  0  0  0  0
    0.8000    0.3396   -1.2610 C   0  0  0  0  0  0  0  0  0  0  0  0
    2.1890    0.6282   -0.8503 C   0  0  0  0  0  0  0  0  0  0  0  0
    2.5670    0.5693    0.4943 C   0  0  0  0  0  0  0  0  0  0  0  0
    3.8858    0.8465    0.8564 C   0  0  0  0  0  0  0  0  0  0  0  0
    4.8227    1.1812   -0.1220 C   0  0  0  0  0  0  0  0  0  0  0  0
    4.4441    1.2397   -1.4641 C   0  0  0  0  0  0  0  0  0  0  0  0
    3.1260    0.9633   -1.8318 C   0  0  0  0  0  0  0  0  0  0  0  0
   -1.0872   -0.4595    1.8300 H   0  0  0  0  0  0  0  0  0  0  0  0
   -2.8357   -1.0629    3.4649 H   0  0  0  0  0  0  0  0  0  0  0  0
   -5.1497   -1.5351    2.7030 H   0  0  0  0  0  0  0  0  0  0  0  0
   -5.7151   -1.4021    0.2896 H   0  0  0  0  0  0  0  0  0  0  0  0
   -3.9755   -0.7989   -1.3628 H   0  0  0  0  0  0  0  0  0  0  0  0
    0.5901    0.4100   -2.3449 H   0  0  0  0  0  0  0  0  0  0  0  0
    1.8423    0.3093    1.2614 H   0  0  0  0  0  0  0  0  0  0  0  0
    4.1813    0.8011    1.9016 H   0  0  0  0  0  0  0  0  0  0  0  0
    5.8497    1.3968    0.1626 H   0  0  0  0  0  0  0  0  0  0  0  0
    5.1770    1.5009   -2.2234 H   0  0  0  0  0  0  0  0  0  0  0  0
    2.8432    1.0122   -2.8801 H   0  0  0  0  0  0  0  0  0  0  0  0
  1  2  2  0  0  0  0
  2  9  1  0  0  0  0
  2  3  1  0  0  0  0
  3  4  1  0  0  0  0
  4 17  1  0  0  0  0
  4  5  2  0  0  0  0
  5 18  1  0  0  0  0
  6  5  1  0  0  0  0
  6 19  1  0  0  0  0
  7  6  2  0  0  0  0
  8  3  2  0  0  0  0
  8  7  1  0  0  0  0
 10 11  1  0  0  0  0
 10  9  2  0  0  0  0
 11 12  2  0  0  0  0
 12 13  1  0  0  0  0
 12 23  1  0  0  0  0
 13 24  1  0  0  0  0
 14 25  1  0  0  0  0
 14 13  2  0  0  0  0
 15 14  1  0  0  0  0
 16 15  2  0  0  0  0
 16 11  1  0  0  0  0
 20  7  1  0  0  0  0
 21  8  1  0  0  0  0
 22 10  1  0  0  0  0
 26 15  1  0  0  0  0
 27 16  1  0  0  0  0
M  END
$$$$
