O=C(C1=CC=CC=C1)/N=C/C2=CC=CC3=C2C=CC=C3
 OpenBabel09032014123D

 33 35  0  0  0  0  0  0  0  0999 V2000
   -0.3871   -1.7987   -2.3372 O   0  0  0  0  0  0  0  0  0  0  0  0
   -1.0921   -0.9580   -1.7879 C   0  0  0  0  0  0  0  0  0  0  0  0
   -2.4654   -0.6923   -2.3172 C   0  0  0  0  0  0  0  0  0  0  0  0
   -3.3047    0.2591   -1.7210 C   0  0  0  0  0  0  0  0  0  0  0  0
   -4.5832    0.4886   -2.2346 C   0  0  0  0  0  0  0  0  0  0  0  0
   -5.0293   -0.2292   -3.3439 C   0  0  0  0  0  0  0  0  0  0  0  0
   -4.2006   -1.1774   -3.9428 C   0  0  0  0  0  0  0  0  0  0  0  0
   -2.9217   -1.4094   -3.4320 C   0  0  0  0  0  0  0  0  0  0  0  0
   -0.7251   -0.2093   -0.6910 N   0  0  0  0  0  0  0  0  0  0  0  0
    0.4613   -0.4203   -0.2121 C   0  0  0  0  0  0  0  0  0  0  0  0
    0.9728    0.3242    0.9682 C   0  0  0  0  0  0  0  0  0  0  0  0
    0.1173    1.2730    1.5517 C   0  0  0  0  0  0  0  0  0  0  0  0
    0.5283    2.0063    2.6575 C   0  0  0  0  0  0  0  0  0  0  0  0
    1.7969    1.7977    3.1894 C   0  0  0  0  0  0  0  0  0  0  0  0
    2.6732    0.8562    2.6274 C   0  0  0  0  0  0  0  0  0  0  0  0
    2.2763    0.0940    1.4964 C   0  0  0  0  0  0  0  0  0  0  0  0
    3.2173   -0.8377    0.9853 C   0  0  0  0  0  0  0  0  0  0  0  0
    4.4799   -1.0056    1.5611 C   0  0  0  0  0  0  0  0  0  0  0  0
    4.8441   -0.2495    2.6649 C   0  0  0  0  0  0  0  0  0  0  0  0
    3.9461    0.6745    3.1933 C   0  0  0  0  0  0  0  0  0  0  0  0
   -2.9713    0.8267   -0.8556 H   0  0  0  0  0  0  0  0  0  0  0  0
   -5.2298    1.2276   -1.7681 H   0  0  0  0  0  0  0  0  0  0  0  0
   -6.0248   -0.0492   -3.7423 H   0  0  0  0  0  0  0  0  0  0  0  0
   -4.5486   -1.7368   -4.8076 H   0  0  0  0  0  0  0  0  0  0  0  0
   -2.2824   -2.1514   -3.9063 H   0  0  0  0  0  0  0  0  0  0  0  0
    1.1287   -1.1651   -0.6726 H   0  0  0  0  0  0  0  0  0  0  0  0
   -0.8769    1.4466    1.1465 H   0  0  0  0  0  0  0  0  0  0  0  0
   -0.1391    2.7390    3.1038 H   0  0  0  0  0  0  0  0  0  0  0  0
    2.0993    2.3827    4.0561 H   0  0  0  0  0  0  0  0  0  0  0  0
    2.9897   -1.4582    0.1230 H   0  0  0  0  0  0  0  0  0  0  0  0
    5.1747   -1.7292    1.1421 H   0  0  0  0  0  0  0  0  0  0  0  0
    5.8247   -0.3766    3.1159 H   0  0  0  0  0  0  0  0  0  0  0  0
    4.2515    1.2579    4.0600 H   0  0  0  0  0  0  0  0  0  0  0  0
  1  2  2  0  0  0  0
  2  9  1  0  0  0  0
  3  2  1  0  0  0  0
  3  4  2  0  0  0  0
  4 21  1  0  0  0  0
  5 22  1  0  0  0  0
  5  4  1  0  0  0  0
  6  5  2  0  0  0  0
  7  8  2  0  0  0  0
  7  6  1  0  0  0  0
  8  3  1  0  0  0  0
  9 10  2  0  0  0  0
 10 11  1  0  0  0  0
 11 16  2  0  0  0  0
 11 12  1  0  0  0  0
 12 13  2  0  0  0  0
 13 28  1  0  0  0  0
 13 14  1  0  0  0  0
 14 29  1  0  0  0  0
 15 14  2  0  0  0  0
 15 20  1  0  0  0  0
 16 15  1  0  0  0  0
 17 16  1  0  0  0  0
 17 18  2  0  0  0  0
 18 19  1  0  0  0  0
 19 32  1  0  0  0  0
 19 20  2  0  0  0  0
 20 33  1  0  0  0  0
 23  6  1  0  0  0  0
 24  7  1  0  0  0  0
 25  8  1  0  0  0  0
 26 10  1  0  0  0  0
 27 12  1  0  0  0  0
 30 17  1  0  0  0  0
 31 18  1  0  0  0  0
M  END
$$$$
