O=C(C1=CC=CC=C1)/N=C/C2=CC=C(OC)C=C2
 OpenBabel09032014123D

 31 32  0  0  0  0  0  0  0  0999 V2000
   -2.6001   -2.0146   -1.1113 O   0  0  0  0  0  0  0  0  0  0  0  0
   -2.2903   -1.0435   -0.4284 C   0  0  0  0  0  0  0  0  0  0  0  0
   -3.3596   -0.2714    0.2767 C   0  0  0  0  0  0  0  0  0  0  0  0
   -3.0523    0.8444    1.0674 C   0  0  0  0  0  0  0  0  0  0  0  0
   -4.0696    1.5484    1.7155 C   0  0  0  0  0  0  0  0  0  0  0  0
   -5.3967    1.1428    1.5777 C   0  0  0  0  0  0  0  0  0  0  0  0
   -5.7113    0.0339    0.7929 C   0  0  0  0  0  0  0  0  0  0  0  0
   -4.6964   -0.6723    0.1435 C   0  0  0  0  0  0  0  0  0  0  0  0
   -1.0048   -0.5822   -0.2441 N   0  0  0  0  0  0  0  0  0  0  0  0
   -0.0660   -1.2377   -0.8465 C   0  0  0  0  0  0  0  0  0  0  0  0
    1.3528   -0.8449   -0.7294 C   0  0  0  0  0  0  0  0  0  0  0  0
    2.3172   -1.5938   -1.4044 C   0  0  0  0  0  0  0  0  0  0  0  0
    3.6635   -1.2343   -1.3032 C   0  0  0  0  0  0  0  0  0  0  0  0
    4.0551   -0.1337   -0.5340 C   0  0  0  0  0  0  0  0  0  0  0  0
    5.4020    0.1032   -0.5239 O   0  0  0  0  0  0  0  0  0  0  0  0
    5.8547    1.2116    0.2436 C   0  0  0  0  0  0  0  0  0  0  0  0
    3.0845    0.6110    0.1386 C   0  0  0  0  0  0  0  0  0  0  0  0
    1.7341    0.2563    0.0415 C   0  0  0  0  0  0  0  0  0  0  0  0
   -2.0233    1.1739    1.1854 H   0  0  0  0  0  0  0  0  0  0  0  0
   -3.8249    2.4130    2.3274 H   0  0  0  0  0  0  0  0  0  0  0  0
   -6.1872    1.6922    2.0830 H   0  0  0  0  0  0  0  0  0  0  0  0
   -6.7460   -0.2820    0.6857 H   0  0  0  0  0  0  0  0  0  0  0  0
   -4.9517   -1.5364   -0.4667 H   0  0  0  0  0  0  0  0  0  0  0  0
   -0.2737   -2.1222   -1.4777 H   0  0  0  0  0  0  0  0  0  0  0  0
    2.0392   -2.4533   -2.0085 H   0  0  0  0  0  0  0  0  0  0  0  0
    4.4170   -1.8168   -1.8285 H   0  0  0  0  0  0  0  0  0  0  0  0
    5.4423    2.1512   -0.1388 H   0  0  0  0  0  0  0  0  0  0  0  0
    5.6200    1.0789    1.3049 H   0  0  0  0  0  0  0  0  0  0  0  0
    6.9435    1.2625    0.1473 H   0  0  0  0  0  0  0  0  0  0  0  0
    3.3409    1.4722    0.7466 H   0  0  0  0  0  0  0  0  0  0  0  0
    0.9870    0.8437    0.5697 H   0  0  0  0  0  0  0  0  0  0  0  0
  1  2  2  0  0  0  0
  2  9  1  0  0  0  0
  2  3  1  0  0  0  0
  3  4  1  0  0  0  0
  4 19  1  0  0  0  0
  4  5  2  0  0  0  0
  5 20  1  0  0  0  0
  6  5  1  0  0  0  0
  6 21  1  0  0  0  0
  7  6  2  0  0  0  0
  8  3  2  0  0  0  0
  8  7  1  0  0  0  0
 10 11  1  0  0  0  0
 10  9  2  0  0  0  0
 11 18  2  0  0  0  0
 12 13  2  0  0  0  0
 12 11  1  0  0  0  0
 13 14  1  0  0  0  0
 14 15  1  0  0  0  0
 14 17  2  0  0  0  0
 15 16  1  0  0  0  0
 16 28  1  0  0  0  0
 17 30  1  0  0  0  0
 18 17  1  0  0  0  0
 18 31  1  0  0  0  0
 22  7  1  0  0  0  0
 23  8  1  0  0  0  0
 24 10  1  0  0  0  0
 25 12  1  0  0  0  0
 26 13  1  0  0  0  0
 27 16  1  0  0  0  0
 29 16  1  0  0  0  0
M  END
$$$$
