O=C(C1=CC=CC=C1)/N=C/C2=CC=CC3=C2C=CC=C3
 OpenBabel09032014123D

 33 35  0  0  0  0  0  0  0  0999 V2000
    1.9886   -2.2058   -0.0427 O   0  0  0  0  0  0  0  0  0  0  0  0
    2.0793   -0.9827   -0.0067 C   0  0  0  0  0  0  0  0  0  0  0  0
    3.4328   -0.3466   -0.0079 C   0  0  0  0  0  0  0  0  0  0  0  0
    3.5834    1.0466    0.0324 C   0  0  0  0  0  0  0  0  0  0  0  0
    4.8588    1.6159    0.0304 C   0  0  0  0  0  0  0  0  0  0  0  0
    5.9883    0.7990   -0.0118 C   0  0  0  0  0  0  0  0  0  0  0  0
    5.8471   -0.5878   -0.0519 C   0  0  0  0  0  0  0  0  0  0  0  0
    4.5734   -1.1605   -0.0501 C   0  0  0  0  0  0  0  0  0  0  0  0
    1.0146   -0.1092    0.0362 N   0  0  0  0  0  0  0  0  0  0  0  0
   -0.1707   -0.6351    0.0381 C   0  0  0  0  0  0  0  0  0  0  0  0
   -1.3982    0.2017    0.0824 C   0  0  0  0  0  0  0  0  0  0  0  0
   -1.2270    1.5950    0.1225 C   0  0  0  0  0  0  0  0  0  0  0  0
   -2.3291    2.4394    0.1651 C   0  0  0  0  0  0  0  0  0  0  0  0
   -3.6111    1.8987    0.1680 C   0  0  0  0  0  0  0  0  0  0  0  0
   -3.8128    0.5101    0.1286 C   0  0  0  0  0  0  0  0  0  0  0  0
   -2.7020   -0.3740    0.0846 C   0  0  0  0  0  0  0  0  0  0  0  0
   -2.9865   -1.7642    0.0464 C   0  0  0  0  0  0  0  0  0  0  0  0
   -4.2965   -2.2516    0.0515 C   0  0  0  0  0  0  0  0  0  0  0  0
   -5.3644   -1.3681    0.0947 C   0  0  0  0  0  0  0  0  0  0  0  0
   -5.1227    0.0028    0.1330 C   0  0  0  0  0  0  0  0  0  0  0  0
    2.7126    1.6968    0.0655 H   0  0  0  0  0  0  0  0  0  0  0  0
    4.9695    2.6970    0.0617 H   0  0  0  0  0  0  0  0  0  0  0  0
    6.9803    1.2440   -0.0133 H   0  0  0  0  0  0  0  0  0  0  0  0
    6.7278   -1.2244   -0.0848 H   0  0  0  0  0  0  0  0  0  0  0  0
    4.4736   -2.2436   -0.0816 H   0  0  0  0  0  0  0  0  0  0  0  0
   -0.3004   -1.7280    0.0066 H   0  0  0  0  0  0  0  0  0  0  0  0
   -0.2309    2.0316    0.1207 H   0  0  0  0  0  0  0  0  0  0  0  0
   -2.1890    3.5168    0.1959 H   0  0  0  0  0  0  0  0  0  0  0  0
   -4.4611    2.5778    0.2017 H   0  0  0  0  0  0  0  0  0  0  0  0
   -2.1922   -2.5046    0.0117 H   0  0  0  0  0  0  0  0  0  0  0  0
   -4.4760   -3.3235    0.0214 H   0  0  0  0  0  0  0  0  0  0  0  0
   -6.3846   -1.7426    0.0988 H   0  0  0  0  0  0  0  0  0  0  0  0
   -5.9748    0.6792    0.1667 H   0  0  0  0  0  0  0  0  0  0  0  0
  1  2  2  0  0  0  0
  2  9  1  0  0  0  0
  3  2  1  0  0  0  0
  3  4  2  0  0  0  0
  4 21  1  0  0  0  0
  5  4  1  0  0  0  0
  5 22  1  0  0  0  0
  6  5  2  0  0  0  0
  7  8  2  0  0  0  0
  7  6  1  0  0  0  0
  8  3  1  0  0  0  0
  9 10  2  0  0  0  0
 10 11  1  0  0  0  0
 11 16  2  0  0  0  0
 11 12  1  0  0  0  0
 12 13  2  0  0  0  0
 13 14  1  0  0  0  0
 13 28  1  0  0  0  0
 14 29  1  0  0  0  0
 15 20  1  0  0  0  0
 15 14  2  0  0  0  0
 16 15  1  0  0  0  0
 17 18  2  0  0  0  0
 17 16  1  0  0  0  0
 18 19  1  0  0  0  0
 19 32  1  0  0  0  0
 19 20  2  0  0  0  0
 20 33  1  0  0  0  0
 23  6  1  0  0  0  0
 24  7  1  0  0  0  0
 25  8  1  0  0  0  0
 26 10  1  0  0  0  0
 27 12  1  0  0  0  0
 30 17  1  0  0  0  0
 31 18  1  0  0  0  0
M  END
$$$$
