O=C(C1=CC=CC=C1)/N=C/C2=CC=C(Cl)C=C2Cl
 OpenBabel09032014123D

 27 28  0  0  0  0  0  0  0  0999 V2000
   -1.6072    0.4211   -2.0427 O   0  0  0  0  0  0  0  0  0  0  0  0
   -1.3511    0.0814   -0.8924 C   0  0  0  0  0  0  0  0  0  0  0  0
   -2.4466   -0.4430   -0.0201 C   0  0  0  0  0  0  0  0  0  0  0  0
   -2.1993   -0.8426    1.3007 C   0  0  0  0  0  0  0  0  0  0  0  0
   -3.2406   -1.3289    2.0943 C   0  0  0  0  0  0  0  0  0  0  0  0
   -4.5314   -1.4185    1.5743 C   0  0  0  0  0  0  0  0  0  0  0  0
   -4.7858   -1.0231    0.2616 C   0  0  0  0  0  0  0  0  0  0  0  0
   -3.7472   -0.5364   -0.5348 C   0  0  0  0  0  0  0  0  0  0  0  0
   -0.1040    0.1400   -0.3079 N   0  0  0  0  0  0  0  0  0  0  0  0
    0.8621    0.5912   -1.0441 C   0  0  0  0  0  0  0  0  0  0  0  0
    2.2432    0.6969   -0.5166 C   0  0  0  0  0  0  0  0  0  0  0  0
    2.4929    0.2970    0.8061 C   0  0  0  0  0  0  0  0  0  0  0  0
    3.7807    0.3814    1.3396 C   0  0  0  0  0  0  0  0  0  0  0  0
    4.8223    0.8653    0.5532 C   0  0  0  0  0  0  0  0  0  0  0  0
    6.4088    0.9697    1.2090 Cl  0  0  0  0  0  0  0  0  0  0  0  0
    4.5894    1.2657   -0.7610 C   0  0  0  0  0  0  0  0  0  0  0  0
    3.3001    1.1827   -1.2993 C   0  0  0  0  0  0  0  0  0  0  0  0
    3.0991    1.6997   -2.9356 Cl  0  0  0  0  0  0  0  0  0  0  0  0
   -1.1997   -0.7796    1.7219 H   0  0  0  0  0  0  0  0  0  0  0  0
   -3.0441   -1.6377    3.1180 H   0  0  0  0  0  0  0  0  0  0  0  0
   -5.3408   -1.7974    2.1936 H   0  0  0  0  0  0  0  0  0  0  0  0
   -5.7925   -1.0932   -0.1432 H   0  0  0  0  0  0  0  0  0  0  0  0
   -3.9558   -0.2303   -1.5581 H   0  0  0  0  0  0  0  0  0  0  0  0
    0.6892    0.9111   -2.0863 H   0  0  0  0  0  0  0  0  0  0  0  0
    1.6870   -0.0830    1.4310 H   0  0  0  0  0  0  0  0  0  0  0  0
    3.9601    0.0683    2.3654 H   0  0  0  0  0  0  0  0  0  0  0  0
    5.4111    1.6421   -1.3655 H   0  0  0  0  0  0  0  0  0  0  0  0
  1  2  2  0  0  0  0
  2  9  1  0  0  0  0
  2  3  1  0  0  0  0
  3  4  1  0  0  0  0
  4 19  1  0  0  0  0
  4  5  2  0  0  0  0
  5 20  1  0  0  0  0
  6  5  1  0  0  0  0
  6 21  1  0  0  0  0
  7  6  2  0  0  0  0
  8  3  2  0  0  0  0
  8  7  1  0  0  0  0
 10 11  1  0  0  0  0
 10  9  2  0  0  0  0
 11 12  2  0  0  0  0
 12 13  1  0  0  0  0
 12 25  1  0  0  0  0
 13 26  1  0  0  0  0
 14 15  1  0  0  0  0
 14 13  2  0  0  0  0
 16 14  1  0  0  0  0
 17 16  2  0  0  0  0
 17 11  1  0  0  0  0
 18 17  1  0  0  0  0
 22  7  1  0  0  0  0
 23  8  1  0  0  0  0
 24 10  1  0  0  0  0
 27 16  1  0  0  0  0
M  END
$$$$
