O=C(C1=CC=CC=C1)/N=C/C2=CC=CC=C2
 OpenBabel09032014123D

 27 28  0  0  0  0  0  0  0  0999 V2000
    1.1441   -2.4747    0.1330 O   0  0  0  0  0  0  0  0  0  0  0  0
    1.1315   -1.2492    0.0757 C   0  0  0  0  0  0  0  0  0  0  0  0
    2.4267   -0.5015    0.0609 C   0  0  0  0  0  0  0  0  0  0  0  0
    2.4599    0.8984   -0.0037 C   0  0  0  0  0  0  0  0  0  0  0  0
    3.6833    1.5726   -0.0162 C   0  0  0  0  0  0  0  0  0  0  0  0
    4.8773    0.8540    0.0358 C   0  0  0  0  0  0  0  0  0  0  0  0
    4.8530   -0.5388    0.1002 C   0  0  0  0  0  0  0  0  0  0  0  0
    3.6318   -1.2161    0.1128 C   0  0  0  0  0  0  0  0  0  0  0  0
   -0.0033   -0.4700    0.0218 N   0  0  0  0  0  0  0  0  0  0  0  0
   -1.1350   -1.0968    0.0335 C   0  0  0  0  0  0  0  0  0  0  0  0
   -2.4224   -0.3751   -0.0200 C   0  0  0  0  0  0  0  0  0  0  0  0
   -2.4609    1.0207   -0.0857 C   0  0  0  0  0  0  0  0  0  0  0  0
   -3.6903    1.6788   -0.1354 C   0  0  0  0  0  0  0  0  0  0  0  0
   -4.8765    0.9441   -0.1195 C   0  0  0  0  0  0  0  0  0  0  0  0
   -4.8369   -0.4495   -0.0539 C   0  0  0  0  0  0  0  0  0  0  0  0
   -3.6095   -1.1129   -0.0040 C   0  0  0  0  0  0  0  0  0  0  0  0
    1.5379    1.4731   -0.0447 H   0  0  0  0  0  0  0  0  0  0  0  0
    3.7032    2.6584   -0.0664 H   0  0  0  0  0  0  0  0  0  0  0  0
    5.8285    1.3805    0.0260 H   0  0  0  0  0  0  0  0  0  0  0  0
    5.7840   -1.0987    0.1407 H   0  0  0  0  0  0  0  0  0  0  0  0
    3.6231   -2.3031    0.1633 H   0  0  0  0  0  0  0  0  0  0  0  0
   -1.1990   -2.2000    0.0840 H   0  0  0  0  0  0  0  0  0  0  0  0
   -1.5408    1.5991   -0.0984 H   0  0  0  0  0  0  0  0  0  0  0  0
   -3.7218    2.7643   -0.1865 H   0  0  0  0  0  0  0  0  0  0  0  0
   -5.8333    1.4591   -0.1583 H   0  0  0  0  0  0  0  0  0  0  0  0
   -5.7632   -1.0184   -0.0417 H   0  0  0  0  0  0  0  0  0  0  0  0
   -3.5915   -2.1984    0.0469 H   0  0  0  0  0  0  0  0  0  0  0  0
  2  1  2  0  0  0  0
  3  2  1  0  0  0  0
  3  8  2  0  0  0  0
  4  3  1  0  0  0  0
  5  4  2  0  0  0  0
  5  6  1  0  0  0  0
  6  7  2  0  0  0  0
  7  8  1  0  0  0  0
  7 20  1  0  0  0  0
  8 21  1  0  0  0  0
  9 10  2  0  0  0  0
  9  2  1  0  0  0  0
 10 22  1  0  0  0  0
 11 16  1  0  0  0  0
 11 10  1  0  0  0  0
 12 11  2  0  0  0  0
 13 14  2  0  0  0  0
 13 12  1  0  0  0  0
 14 15  1  0  0  0  0
 15 26  1  0  0  0  0
 15 16  2  0  0  0  0
 16 27  1  0  0  0  0
 17  4  1  0  0  0  0
 18  5  1  0  0  0  0
 19  6  1  0  0  0  0
 23 12  1  0  0  0  0
 24 13  1  0  0  0  0
 25 14  1  0  0  0  0
M  END
$$$$
