O=C(C1=CC=CC=C1)/N=C/C2=CC=C(Cl)C=C2Cl
 OpenBabel09032014123D

 27 28  0  0  0  0  0  0  0  0999 V2000
   -1.6476    1.2599   -1.9586 O   0  0  0  0  0  0  0  0  0  0  0  0
   -1.3688    0.6870   -0.9106 C   0  0  0  0  0  0  0  0  0  0  0  0
   -2.4436    0.4376    0.0987 C   0  0  0  0  0  0  0  0  0  0  0  0
   -2.1702   -0.2135    1.3097 C   0  0  0  0  0  0  0  0  0  0  0  0
   -3.1925   -0.4340    2.2353 C   0  0  0  0  0  0  0  0  0  0  0  0
   -4.4903   -0.0063    1.9572 C   0  0  0  0  0  0  0  0  0  0  0  0
   -4.7707    0.6422    0.7550 C   0  0  0  0  0  0  0  0  0  0  0  0
   -3.7510    0.8643   -0.1729 C   0  0  0  0  0  0  0  0  0  0  0  0
   -0.1133    0.2355   -0.5641 N   0  0  0  0  0  0  0  0  0  0  0  0
    0.8352    0.4399   -1.4228 C   0  0  0  0  0  0  0  0  0  0  0  0
    2.2232   -0.0043   -1.1526 C   0  0  0  0  0  0  0  0  0  0  0  0
    2.4991   -0.6566    0.0600 C   0  0  0  0  0  0  0  0  0  0  0  0
    3.7942   -1.0901    0.3514 C   0  0  0  0  0  0  0  0  0  0  0  0
    4.8169   -0.8732   -0.5676 C   0  0  0  0  0  0  0  0  0  0  0  0
    6.4124   -1.4066   -0.2098 Cl  0  0  0  0  0  0  0  0  0  0  0  0
    4.5579   -0.2272   -1.7747 C   0  0  0  0  0  0  0  0  0  0  0  0
    3.2612    0.2088   -2.0705 C   0  0  0  0  0  0  0  0  0  0  0  0
    3.0276    1.0003   -3.5885 Cl  0  0  0  0  0  0  0  0  0  0  0  0
   -1.1648   -0.5534    1.5427 H   0  0  0  0  0  0  0  0  0  0  0  0
   -2.9758   -0.9394    3.1732 H   0  0  0  0  0  0  0  0  0  0  0  0
   -5.2849   -0.1787    2.6790 H   0  0  0  0  0  0  0  0  0  0  0  0
   -5.7828    0.9754    0.5388 H   0  0  0  0  0  0  0  0  0  0  0  0
   -3.9799    1.3713   -1.1082 H   0  0  0  0  0  0  0  0  0  0  0  0
    0.6416    0.9505   -2.3821 H   0  0  0  0  0  0  0  0  0  0  0  0
    1.7081   -0.8321    0.7865 H   0  0  0  0  0  0  0  0  0  0  0  0
    3.9939   -1.5940    1.2941 H   0  0  0  0  0  0  0  0  0  0  0  0
    5.3651   -0.0634   -2.4847 H   0  0  0  0  0  0  0  0  0  0  0  0
  1  2  2  0  0  0  0
  2  9  1  0  0  0  0
  2  3  1  0  0  0  0
  3  4  1  0  0  0  0
  4 19  1  0  0  0  0
  4  5  2  0  0  0  0
  5 20  1  0  0  0  0
  6  5  1  0  0  0  0
  6 21  1  0  0  0  0
  7  6  2  0  0  0  0
  8  3  2  0  0  0  0
  8  7  1  0  0  0  0
 10 11  1  0  0  0  0
 10  9  2  0  0  0  0
 11 12  2  0  0  0  0
 12 13  1  0  0  0  0
 12 25  1  0  0  0  0
 13 26  1  0  0  0  0
 14 15  1  0  0  0  0
 14 13  2  0  0  0  0
 16 14  1  0  0  0  0
 17 16  2  0  0  0  0
 17 11  1  0  0  0  0
 18 17  1  0  0  0  0
 22  7  1  0  0  0  0
 23  8  1  0  0  0  0
 24 10  1  0  0  0  0
 27 16  1  0  0  0  0
M  END
$$$$
