O=C(C1=CC=CC=C1)/N=C/C2=CC=C(Cl)C=C2Cl
 OpenBabel09032014123D

 27 28  0  0  0  0  0  0  0  0999 V2000
    1.3646   -2.2714    0.7834 O   0  0  0  0  0  0  0  0  0  0  0  0
    1.2463   -1.1149    0.3929 C   0  0  0  0  0  0  0  0  0  0  0  0
    2.4717   -0.2973    0.1359 C   0  0  0  0  0  0  0  0  0  0  0  0
    2.3837    1.0285   -0.3111 C   0  0  0  0  0  0  0  0  0  0  0  0
    3.5440    1.7702   -0.5436 C   0  0  0  0  0  0  0  0  0  0  0  0
    4.7956    1.1932   -0.3314 C   0  0  0  0  0  0  0  0  0  0  0  0
    4.8920   -0.1250    0.1131 C   0  0  0  0  0  0  0  0  0  0  0  0
    3.7340   -0.8696    0.3466 C   0  0  0  0  0  0  0  0  0  0  0  0
    0.0473   -0.4756    0.1606 N   0  0  0  0  0  0  0  0  0  0  0  0
   -1.0292   -1.1637    0.3762 C   0  0  0  0  0  0  0  0  0  0  0  0
   -2.3721   -0.5750    0.1588 C   0  0  0  0  0  0  0  0  0  0  0  0
   -2.4624    0.7529   -0.2889 C   0  0  0  0  0  0  0  0  0  0  0  0
   -3.7093    1.3432   -0.5055 C   0  0  0  0  0  0  0  0  0  0  0  0
   -4.8691    0.6086   -0.2754 C   0  0  0  0  0  0  0  0  0  0  0  0
   -6.4054    1.3345   -0.5418 Cl  0  0  0  0  0  0  0  0  0  0  0  0
   -4.7948   -0.7099    0.1690 C   0  0  0  0  0  0  0  0  0  0  0  0
   -3.5469   -1.3052    0.3872 C   0  0  0  0  0  0  0  0  0  0  0  0
   -3.5452   -2.9428    0.9378 Cl  0  0  0  0  0  0  0  0  0  0  0  0
    1.4167    1.4938   -0.4816 H   0  0  0  0  0  0  0  0  0  0  0  0
    3.4707    2.7980   -0.8902 H   0  0  0  0  0  0  0  0  0  0  0  0
    5.6978    1.7721   -0.5129 H   0  0  0  0  0  0  0  0  0  0  0  0
    5.8682   -0.5743    0.2784 H   0  0  0  0  0  0  0  0  0  0  0  0
    3.8197   -1.8975    0.6934 H   0  0  0  0  0  0  0  0  0  0  0  0
   -0.9824   -2.2089    0.7283 H   0  0  0  0  0  0  0  0  0  0  0  0
   -1.5630    1.3375   -0.4724 H   0  0  0  0  0  0  0  0  0  0  0  0
   -3.7648    2.3723   -0.8523 H   0  0  0  0  0  0  0  0  0  0  0  0
   -5.7077   -1.2736    0.3452 H   0  0  0  0  0  0  0  0  0  0  0  0
  2  1  2  0  0  0  0
  3  8  1  0  0  0  0
  3  2  1  0  0  0  0
  4  3  2  0  0  0  0
  5  6  2  0  0  0  0
  5  4  1  0  0  0  0
  6  7  1  0  0  0  0
  7 22  1  0  0  0  0
  7  8  2  0  0  0  0
  8 23  1  0  0  0  0
  9 10  2  0  0  0  0
  9  2  1  0  0  0  0
 10 24  1  0  0  0  0
 11 10  1  0  0  0  0
 11 17  2  0  0  0  0
 12 11  1  0  0  0  0
 13 12  2  0  0  0  0
 13 14  1  0  0  0  0
 14 16  2  0  0  0  0
 15 14  1  0  0  0  0
 16 27  1  0  0  0  0
 16 17  1  0  0  0  0
 17 18  1  0  0  0  0
 19  4  1  0  0  0  0
 20  5  1  0  0  0  0
 21  6  1  0  0  0  0
 25 12  1  0  0  0  0
 26 13  1  0  0  0  0
M  END
$$$$
