O=C(C1=CC=CC=C1)/N=C/C2=CC=CC3=C2C=CC=C3
 OpenBabel09032014123D

 33 35  0  0  0  0  0  0  0  0999 V2000
    1.6263    0.7848   -2.2711 O   0  0  0  0  0  0  0  0  0  0  0  0
    1.8978    0.3017   -1.1765 C   0  0  0  0  0  0  0  0  0  0  0  0
    3.3232   -0.0020   -0.8411 C   0  0  0  0  0  0  0  0  0  0  0  0
    3.6789   -0.5542    0.3973 C   0  0  0  0  0  0  0  0  0  0  0  0
    5.0176   -0.8286    0.6860 C   0  0  0  0  0  0  0  0  0  0  0  0
    6.0063   -0.5536   -0.2584 C   0  0  0  0  0  0  0  0  0  0  0  0
    5.6608   -0.0043   -1.4927 C   0  0  0  0  0  0  0  0  0  0  0  0
    4.3233    0.2713   -1.7848 C   0  0  0  0  0  0  0  0  0  0  0  0
    0.9812    0.0021   -0.1923 N   0  0  0  0  0  0  0  0  0  0  0  0
   -0.2624    0.2559   -0.4576 C   0  0  0  0  0  0  0  0  0  0  0  0
   -1.3446   -0.0228    0.5224 C   0  0  0  0  0  0  0  0  0  0  0  0
   -0.9685   -0.5757    1.7574 C   0  0  0  0  0  0  0  0  0  0  0  0
   -1.9262   -0.8624    2.7219 C   0  0  0  0  0  0  0  0  0  0  0  0
   -3.2671   -0.5990    2.4603 C   0  0  0  0  0  0  0  0  0  0  0  0
   -3.6724   -0.0468    1.2351 C   0  0  0  0  0  0  0  0  0  0  0  0
   -2.7121    0.2551    0.2330 C   0  0  0  0  0  0  0  0  0  0  0  0
   -3.1990    0.8112   -0.9788 C   0  0  0  0  0  0  0  0  0  0  0  0
   -4.5596    1.0548   -1.1869 C   0  0  0  0  0  0  0  0  0  0  0  0
   -5.4778    0.7514   -0.1931 C   0  0  0  0  0  0  0  0  0  0  0  0
   -5.0359    0.2045    1.0090 C   0  0  0  0  0  0  0  0  0  0  0  0
    2.9197   -0.7741    1.1440 H   0  0  0  0  0  0  0  0  0  0  0  0
    5.2876   -1.2568    1.6481 H   0  0  0  0  0  0  0  0  0  0  0  0
    7.0478   -0.7679   -0.0319 H   0  0  0  0  0  0  0  0  0  0  0  0
    6.4317    0.2099   -2.2288 H   0  0  0  0  0  0  0  0  0  0  0  0
    4.0637    0.6999   -2.7507 H   0  0  0  0  0  0  0  0  0  0  0  0
   -0.5529    0.6895   -1.4271 H   0  0  0  0  0  0  0  0  0  0  0  0
    0.0759   -0.7867    1.9755 H   0  0  0  0  0  0  0  0  0  0  0  0
   -1.6279   -1.2902    3.6754 H   0  0  0  0  0  0  0  0  0  0  0  0
   -4.0016   -0.8311    3.2295 H   0  0  0  0  0  0  0  0  0  0  0  0
   -2.5286    1.0695   -1.7937 H   0  0  0  0  0  0  0  0  0  0  0  0
   -4.8959    1.4820   -2.1284 H   0  0  0  0  0  0  0  0  0  0  0  0
   -6.5366    0.9391   -0.3505 H   0  0  0  0  0  0  0  0  0  0  0  0
   -5.7728   -0.0264    1.7761 H   0  0  0  0  0  0  0  0  0  0  0  0
  1  2  2  0  0  0  0
  2  3  1  0  0  0  0
  2  9  1  0  0  0  0
  3  4  2  0  0  0  0
  4  5  1  0  0  0  0
  4 21  1  0  0  0  0
  5 22  1  0  0  0  0
  6 23  1  0  0  0  0
  6  5  2  0  0  0  0
  7  6  1  0  0  0  0
  8  7  2  0  0  0  0
  8  3  1  0  0  0  0
 10  9  2  0  0  0  0
 10 11  1  0  0  0  0
 11 12  1  0  0  0  0
 12 27  1  0  0  0  0
 12 13  2  0  0  0  0
 13 28  1  0  0  0  0
 14 13  1  0  0  0  0
 14 29  1  0  0  0  0
 15 14  2  0  0  0  0
 16 11  2  0  0  0  0
 16 15  1  0  0  0  0
 17 16  1  0  0  0  0
 18 17  2  0  0  0  0
 18 19  1  0  0  0  0
 19 20  2  0  0  0  0
 20 15  1  0  0  0  0
 20 33  1  0  0  0  0
 24  7  1  0  0  0  0
 25  8  1  0  0  0  0
 26 10  1  0  0  0  0
 30 17  1  0  0  0  0
 31 18  1  0  0  0  0
 32 19  1  0  0  0  0
M  END
$$$$
