O=C(C1=CC=CC=C1)/N=C/C2=CC=C(C(F)(F)F)C=C2
 OpenBabel09032014123D

 30 31  0  0  0  0  0  0  0  0999 V2000
    2.1686    1.4243    1.9761 O   0  0  0  0  0  0  0  0  0  0  0  0
    1.9718    0.5825    1.1060 C   0  0  0  0  0  0  0  0  0  0  0  0
    3.1101   -0.2533    0.6149 C   0  0  0  0  0  0  0  0  0  0  0  0
    4.3880   -0.0609    1.1575 C   0  0  0  0  0  0  0  0  0  0  0  0
    5.4639   -0.8317    0.7120 C   0  0  0  0  0  0  0  0  0  0  0  0
    5.2694   -1.7967   -0.2759 C   0  0  0  0  0  0  0  0  0  0  0  0
    4.0009   -1.9941   -0.8208 C   0  0  0  0  0  0  0  0  0  0  0  0
    2.9221   -1.2254   -0.3780 C   0  0  0  0  0  0  0  0  0  0  0  0
    0.7556    0.3233    0.5151 N   0  0  0  0  0  0  0  0  0  0  0  0
   -0.2500    1.0278    0.9201 C   0  0  0  0  0  0  0  0  0  0  0  0
   -1.5996    0.8321    0.3539 C   0  0  0  0  0  0  0  0  0  0  0  0
   -1.8251   -0.1248   -0.6394 C   0  0  0  0  0  0  0  0  0  0  0  0
   -3.1080   -0.2963   -1.1626 C   0  0  0  0  0  0  0  0  0  0  0  0
   -4.1755    0.4910   -0.7031 C   0  0  0  0  0  0  0  0  0  0  0  0
   -5.5662    0.2876   -1.2539 C   0  0  0  0  0  0  0  0  0  0  0  0
   -6.3236    1.4195   -1.2214 F   0  0  0  0  0  0  0  0  0  0  0  0
   -5.5724   -0.1257   -2.5518 F   0  0  0  0  0  0  0  0  0  0  0  0
   -6.2650   -0.6505   -0.5580 F   0  0  0  0  0  0  0  0  0  0  0  0
   -3.9362    1.4433    0.3021 C   0  0  0  0  0  0  0  0  0  0  0  0
   -2.6528    1.6169    0.8275 C   0  0  0  0  0  0  0  0  0  0  0  0
    4.5496    0.6896    1.9287 H   0  0  0  0  0  0  0  0  0  0  0  0
    6.4536   -0.6786    1.1361 H   0  0  0  0  0  0  0  0  0  0  0  0
    6.1078   -2.3961   -0.6220 H   0  0  0  0  0  0  0  0  0  0  0  0
    3.8498   -2.7465   -1.5908 H   0  0  0  0  0  0  0  0  0  0  0  0
    1.9398   -1.3918   -0.8130 H   0  0  0  0  0  0  0  0  0  0  0  0
   -0.1544    1.8043    1.7021 H   0  0  0  0  0  0  0  0  0  0  0  0
   -1.0084   -0.7406   -1.0090 H   0  0  0  0  0  0  0  0  0  0  0  0
   -3.2709   -1.0482   -1.9340 H   0  0  0  0  0  0  0  0  0  0  0  0
   -4.7539    2.0569    0.6793 H   0  0  0  0  0  0  0  0  0  0  0  0
   -2.4887    2.3620    1.6024 H   0  0  0  0  0  0  0  0  0  0  0  0
  2  1  2  0  0  0  0
  3  2  1  0  0  0  0
  3  4  2  0  0  0  0
  4 21  1  0  0  0  0
  5 22  1  0  0  0  0
  5  4  1  0  0  0  0
  6  5  2  0  0  0  0
  7  8  2  0  0  0  0
  7  6  1  0  0  0  0
  8  3  1  0  0  0  0
  9 10  2  0  0  0  0
  9  2  1  0  0  0  0
 10 26  1  0  0  0  0
 11 20  1  0  0  0  0
 11 10  1  0  0  0  0
 12 11  2  0  0  0  0
 13 14  2  0  0  0  0
 13 12  1  0  0  0  0
 14 19  1  0  0  0  0
 15 16  1  0  0  0  0
 15 14  1  0  0  0  0
 15 18  1  0  0  0  0
 17 15  1  0  0  0  0
 19 29  1  0  0  0  0
 19 20  2  0  0  0  0
 20 30  1  0  0  0  0
 23  6  1  0  0  0  0
 24  7  1  0  0  0  0
 25  8  1  0  0  0  0
 27 12  1  0  0  0  0
 28 13  1  0  0  0  0
M  END
$$$$
