O=C(C1=CC=CC=C1)/N=C/C2=CC=CC3=C2C=CC=C3
 OpenBabel09032014123D

 33 35  0  0  0  0  0  0  0  0999 V2000
    1.8998    2.2121    0.5495 O   0  0  0  0  0  0  0  0  0  0  0  0
    2.0390    1.0314    0.2464 C   0  0  0  0  0  0  0  0  0  0  0  0
    3.4167    0.4675    0.1037 C   0  0  0  0  0  0  0  0  0  0  0  0
    3.6224   -0.8757   -0.2412 C   0  0  0  0  0  0  0  0  0  0  0  0
    4.9195   -1.3779   -0.3681 C   0  0  0  0  0  0  0  0  0  0  0  0
    6.0158   -0.5435   -0.1520 C   0  0  0  0  0  0  0  0  0  0  0  0
    5.8198    0.7938    0.1914 C   0  0  0  0  0  0  0  0  0  0  0  0
    4.5243    1.2994    0.3192 C   0  0  0  0  0  0  0  0  0  0  0  0
    1.0095    0.1447    0.0168 N   0  0  0  0  0  0  0  0  0  0  0  0
   -0.1957    0.6083    0.1340 C   0  0  0  0  0  0  0  0  0  0  0  0
   -1.3893   -0.2490   -0.0882 C   0  0  0  0  0  0  0  0  0  0  0  0
   -1.1629   -1.5915   -0.4328 C   0  0  0  0  0  0  0  0  0  0  0  0
   -2.2309   -2.4514   -0.6555 C   0  0  0  0  0  0  0  0  0  0  0  0
   -3.5334   -1.9771   -0.5357 C   0  0  0  0  0  0  0  0  0  0  0  0
   -3.7899   -0.6404   -0.1927 C   0  0  0  0  0  0  0  0  0  0  0  0
   -2.7150    0.2583    0.0400 C   0  0  0  0  0  0  0  0  0  0  0  0
   -3.0543    1.5934    0.3825 C   0  0  0  0  0  0  0  0  0  0  0  0
   -4.3827    2.0150    0.4887 C   0  0  0  0  0  0  0  0  0  0  0  0
   -5.4149    1.1186    0.2567 C   0  0  0  0  0  0  0  0  0  0  0  0
   -5.1191   -0.1995   -0.0815 C   0  0  0  0  0  0  0  0  0  0  0  0
    2.7779   -1.5387   -0.4129 H   0  0  0  0  0  0  0  0  0  0  0  0
    5.0730   -2.4204   -0.6358 H   0  0  0  0  0  0  0  0  0  0  0  0
    7.0248   -0.9363   -0.2513 H   0  0  0  0  0  0  0  0  0  0  0  0
    6.6746    1.4440    0.3599 H   0  0  0  0  0  0  0  0  0  0  0  0
    4.3816    2.3443    0.5875 H   0  0  0  0  0  0  0  0  0  0  0  0
   -0.3686    1.6616    0.4044 H   0  0  0  0  0  0  0  0  0  0  0  0
   -0.1502   -1.9759   -0.5299 H   0  0  0  0  0  0  0  0  0  0  0  0
   -2.0482   -3.4892   -0.9219 H   0  0  0  0  0  0  0  0  0  0  0  0
   -4.3559   -2.6673   -0.7144 H   0  0  0  0  0  0  0  0  0  0  0  0
   -2.2900    2.3409    0.5758 H   0  0  0  0  0  0  0  0  0  0  0  0
   -4.6046    3.0460    0.7532 H   0  0  0  0  0  0  0  0  0  0  0  0
   -6.4493    1.4420    0.3381 H   0  0  0  0  0  0  0  0  0  0  0  0
   -5.9438   -0.8872   -0.2596 H   0  0  0  0  0  0  0  0  0  0  0  0
  2  1  2  0  0  0  0
  3  2  1  0  0  0  0
  3  8  2  0  0  0  0
  4  3  1  0  0  0  0
  5  4  2  0  0  0  0
  5  6  1  0  0  0  0
  6  7  2  0  0  0  0
  7  8  1  0  0  0  0
  7 24  1  0  0  0  0
  8 25  1  0  0  0  0
  9 10  2  0  0  0  0
  9  2  1  0  0  0  0
 10 26  1  0  0  0  0
 11 16  1  0  0  0  0
 11 10  1  0  0  0  0
 12 11  2  0  0  0  0
 13 14  2  0  0  0  0
 13 12  1  0  0  0  0
 14 15  1  0  0  0  0
 15 20  2  0  0  0  0
 15 16  1  0  0  0  0
 16 17  2  0  0  0  0
 17 18  1  0  0  0  0
 17 30  1  0  0  0  0
 18 31  1  0  0  0  0
 19 32  1  0  0  0  0
 19 18  2  0  0  0  0
 20 19  1  0  0  0  0
 21  4  1  0  0  0  0
 22  5  1  0  0  0  0
 23  6  1  0  0  0  0
 27 12  1  0  0  0  0
 28 13  1  0  0  0  0
 29 14  1  0  0  0  0
 33 20  1  0  0  0  0
M  END
$$$$
