O=C(C1=CC=CC=C1)/N=C/C2=CC=C(C(F)(F)F)C=C2
 OpenBabel09032014123D

 30 31  0  0  0  0  0  0  0  0999 V2000
   -2.0016   -2.5361    0.3871 O   0  0  0  0  0  0  0  0  0  0  0  0
   -1.8956   -1.3557    0.0710 C   0  0  0  0  0  0  0  0  0  0  0  0
   -3.1152   -0.5817   -0.3150 C   0  0  0  0  0  0  0  0  0  0  0  0
   -4.3635   -1.2191   -0.3101 C   0  0  0  0  0  0  0  0  0  0  0  0
   -5.5144   -0.5136   -0.6674 C   0  0  0  0  0  0  0  0  0  0  0  0
   -5.4246    0.8299   -1.0308 C   0  0  0  0  0  0  0  0  0  0  0  0
   -4.1862    1.4713   -1.0382 C   0  0  0  0  0  0  0  0  0  0  0  0
   -3.0327    0.7692   -0.6815 C   0  0  0  0  0  0  0  0  0  0  0  0
   -0.7151   -0.6478    0.0363 N   0  0  0  0  0  0  0  0  0  0  0  0
    0.3572   -1.2896    0.3679 C   0  0  0  0  0  0  0  0  0  0  0  0
    1.6776   -0.6287    0.3661 C   0  0  0  0  0  0  0  0  0  0  0  0
    2.8039   -1.3667    0.7352 C   0  0  0  0  0  0  0  0  0  0  0  0
    4.0609   -0.7560    0.7395 C   0  0  0  0  0  0  0  0  0  0  0  0
    4.2033    0.5919    0.3692 C   0  0  0  0  0  0  0  0  0  0  0  0
    5.5578    1.2577    0.3963 C   0  0  0  0  0  0  0  0  0  0  0  0
    6.5821    0.3929    0.1529 F   0  0  0  0  0  0  0  0  0  0  0  0
    5.6841    2.2514   -0.5267 F   0  0  0  0  0  0  0  0  0  0  0  0
    5.8285    1.8286    1.6019 F   0  0  0  0  0  0  0  0  0  0  0  0
    3.0603    1.3230    0.0090 C   0  0  0  0  0  0  0  0  0  0  0  0
    1.8033    0.7153    0.0040 C   0  0  0  0  0  0  0  0  0  0  0  0
   -4.4435   -2.2670   -0.0280 H   0  0  0  0  0  0  0  0  0  0  0  0
   -6.4805   -1.0127   -0.6620 H   0  0  0  0  0  0  0  0  0  0  0  0
   -6.3214    1.3781   -1.3088 H   0  0  0  0  0  0  0  0  0  0  0  0
   -4.1168    2.5186   -1.3216 H   0  0  0  0  0  0  0  0  0  0  0  0
   -2.0751    1.2839   -0.6925 H   0  0  0  0  0  0  0  0  0  0  0  0
    0.3430   -2.3545    0.6670 H   0  0  0  0  0  0  0  0  0  0  0  0
    2.7165   -2.4121    1.0218 H   0  0  0  0  0  0  0  0  0  0  0  0
    4.9346   -1.3375    1.0322 H   0  0  0  0  0  0  0  0  0  0  0  0
    3.1446    2.3722   -0.2719 H   0  0  0  0  0  0  0  0  0  0  0  0
    0.9283    1.2949   -0.2811 H   0  0  0  0  0  0  0  0  0  0  0  0
  2  1  2  0  0  0  0
  3  4  1  0  0  0  0
  3  2  1  0  0  0  0
  4 21  1  0  0  0  0
  5 22  1  0  0  0  0
  5  4  2  0  0  0  0
  6  5  1  0  0  0  0
  7  6  2  0  0  0  0
  7  8  1  0  0  0  0
  8  3  2  0  0  0  0
  9  2  1  0  0  0  0
  9 10  2  0  0  0  0
 10 26  1  0  0  0  0
 11 10  1  0  0  0  0
 11 12  2  0  0  0  0
 12 13  1  0  0  0  0
 12 27  1  0  0  0  0
 13 28  1  0  0  0  0
 14 15  1  0  0  0  0
 14 13  2  0  0  0  0
 15 18  1  0  0  0  0
 16 15  1  0  0  0  0
 17 15  1  0  0  0  0
 19 14  1  0  0  0  0
 20 19  2  0  0  0  0
 20 11  1  0  0  0  0
 23  6  1  0  0  0  0
 24  7  1  0  0  0  0
 25  8  1  0  0  0  0
 29 19  1  0  0  0  0
 30 20  1  0  0  0  0
M  END
$$$$
