O=C(C1=CC=CC=C1)/N=C/C2=CC=CC=C2
 OpenBabel09032014123D

 27 28  0  0  0  0  0  0  0  0999 V2000
   -1.2904   -0.0283    2.4037 O   0  0  0  0  0  0  0  0  0  0  0  0
   -1.2038    0.0460    1.1820 C   0  0  0  0  0  0  0  0  0  0  0  0
   -2.4502    0.1594    0.3631 C   0  0  0  0  0  0  0  0  0  0  0  0
   -2.3986    0.2468   -1.0350 C   0  0  0  0  0  0  0  0  0  0  0  0
   -3.5778    0.3519   -1.7765 C   0  0  0  0  0  0  0  0  0  0  0  0
   -4.8119    0.3702   -1.1273 C   0  0  0  0  0  0  0  0  0  0  0  0
   -4.8718    0.2837    0.2632 C   0  0  0  0  0  0  0  0  0  0  0  0
   -3.6949    0.1785    1.0078 C   0  0  0  0  0  0  0  0  0  0  0  0
   -0.0252    0.0345    0.4690 N   0  0  0  0  0  0  0  0  0  0  0  0
    1.0655   -0.0629    1.1580 C   0  0  0  0  0  0  0  0  0  0  0  0
    2.3929   -0.0859    0.5110 C   0  0  0  0  0  0  0  0  0  0  0  0
    2.5156   -0.0026   -0.8791 C   0  0  0  0  0  0  0  0  0  0  0  0
    3.7813   -0.0264   -1.4660 C   0  0  0  0  0  0  0  0  0  0  0  0
    4.9197   -0.1333   -0.6662 C   0  0  0  0  0  0  0  0  0  0  0  0
    4.7960   -0.2165    0.7215 C   0  0  0  0  0  0  0  0  0  0  0  0
    3.5320   -0.1930    1.3138 C   0  0  0  0  0  0  0  0  0  0  0  0
   -1.4445    0.2338   -1.5561 H   0  0  0  0  0  0  0  0  0  0  0  0
   -3.5320    0.4193   -2.8606 H   0  0  0  0  0  0  0  0  0  0  0  0
   -5.7285    0.4521   -1.7062 H   0  0  0  0  0  0  0  0  0  0  0  0
   -5.8340    0.2981    0.7691 H   0  0  0  0  0  0  0  0  0  0  0  0
   -3.7520    0.1116    2.0924 H   0  0  0  0  0  0  0  0  0  0  0  0
    1.0627   -0.1338    2.2620 H   0  0  0  0  0  0  0  0  0  0  0  0
    1.6330    0.0809   -1.5079 H   0  0  0  0  0  0  0  0  0  0  0  0
    3.8783    0.0383   -2.5468 H   0  0  0  0  0  0  0  0  0  0  0  0
    5.9049   -0.1517   -1.1258 H   0  0  0  0  0  0  0  0  0  0  0  0
    5.6853   -0.2996    1.3413 H   0  0  0  0  0  0  0  0  0  0  0  0
    3.4484   -0.2585    2.3955 H   0  0  0  0  0  0  0  0  0  0  0  0
  2  1  2  0  0  0  0
  3  8  1  0  0  0  0
  3  2  1  0  0  0  0
  4  3  2  0  0  0  0
  5  6  2  0  0  0  0
  5  4  1  0  0  0  0
  6  7  1  0  0  0  0
  7 20  1  0  0  0  0
  7  8  2  0  0  0  0
  8 21  1  0  0  0  0
  9 10  2  0  0  0  0
  9  2  1  0  0  0  0
 10 22  1  0  0  0  0
 11 10  1  0  0  0  0
 11 16  2  0  0  0  0
 12 11  1  0  0  0  0
 13 12  2  0  0  0  0
 13 14  1  0  0  0  0
 14 15  2  0  0  0  0
 15 16  1  0  0  0  0
 15 26  1  0  0  0  0
 16 27  1  0  0  0  0
 17  4  1  0  0  0  0
 18  5  1  0  0  0  0
 19  6  1  0  0  0  0
 23 12  1  0  0  0  0
 24 13  1  0  0  0  0
 25 14  1  0  0  0  0
M  END
$$$$
