O=C(C1=CC=CC=C1)/N=C/C2=CC=C(Cl)C=C2Cl
 OpenBabel09032014123D

 27 28  0  0  0  0  0  0  0  0999 V2000
   -1.3763   -2.2196    0.9653 O   0  0  0  0  0  0  0  0  0  0  0  0
   -1.2510   -1.1034    0.4729 C   0  0  0  0  0  0  0  0  0  0  0  0
   -2.4691   -0.3460    0.0501 C   0  0  0  0  0  0  0  0  0  0  0  0
   -2.3729    0.9323   -0.5171 C   0  0  0  0  0  0  0  0  0  0  0  0
   -3.5265    1.6182   -0.9035 C   0  0  0  0  0  0  0  0  0  0  0  0
   -4.7794    1.0325   -0.7259 C   0  0  0  0  0  0  0  0  0  0  0  0
   -4.8839   -0.2388   -0.1625 C   0  0  0  0  0  0  0  0  0  0  0  0
   -3.7326   -0.9275    0.2250 C   0  0  0  0  0  0  0  0  0  0  0  0
   -0.0501   -0.4590    0.2654 N   0  0  0  0  0  0  0  0  0  0  0  0
    1.0201   -1.0953    0.6239 C   0  0  0  0  0  0  0  0  0  0  0  0
    2.3642   -0.4961    0.4464 C   0  0  0  0  0  0  0  0  0  0  0  0
    2.4626    0.7843   -0.1215 C   0  0  0  0  0  0  0  0  0  0  0  0
    3.7109    1.3828   -0.3051 C   0  0  0  0  0  0  0  0  0  0  0  0
    4.8640    0.7038    0.0781 C   0  0  0  0  0  0  0  0  0  0  0  0
    6.4020    1.4398   -0.1474 Cl  0  0  0  0  0  0  0  0  0  0  0  0
    4.7816   -0.5673    0.6430 C   0  0  0  0  0  0  0  0  0  0  0  0
    3.5323   -1.1705    0.8287 C   0  0  0  0  0  0  0  0  0  0  0  0
    3.5205   -2.7471    1.5354 Cl  0  0  0  0  0  0  0  0  0  0  0  0
   -1.4048    1.4037   -0.6628 H   0  0  0  0  0  0  0  0  0  0  0  0
   -3.4470    2.6095   -1.3429 H   0  0  0  0  0  0  0  0  0  0  0  0
   -5.6764    1.5679   -1.0273 H   0  0  0  0  0  0  0  0  0  0  0  0
   -5.8611   -0.6949   -0.0243 H   0  0  0  0  0  0  0  0  0  0  0  0
   -3.8246   -1.9191    0.6638 H   0  0  0  0  0  0  0  0  0  0  0  0
    0.9668   -2.1026    1.0723 H   0  0  0  0  0  0  0  0  0  0  0  0
    1.5685    1.3254   -0.4252 H   0  0  0  0  0  0  0  0  0  0  0  0
    3.7727    2.3749   -0.7461 H   0  0  0  0  0  0  0  0  0  0  0  0
    5.6894   -1.0879    0.9384 H   0  0  0  0  0  0  0  0  0  0  0  0
  2  1  2  0  0  0  0
  3  8  1  0  0  0  0
  3  2  1  0  0  0  0
  4  3  2  0  0  0  0
  5  6  2  0  0  0  0
  5  4  1  0  0  0  0
  6  7  1  0  0  0  0
  7 22  1  0  0  0  0
  7  8  2  0  0  0  0
  8 23  1  0  0  0  0
  9  2  1  0  0  0  0
  9 10  2  0  0  0  0
 10 24  1  0  0  0  0
 11 10  1  0  0  0  0
 11 17  2  0  0  0  0
 12 11  1  0  0  0  0
 13 12  2  0  0  0  0
 13 14  1  0  0  0  0
 14 16  2  0  0  0  0
 15 14  1  0  0  0  0
 16 17  1  0  0  0  0
 16 27  1  0  0  0  0
 17 18  1  0  0  0  0
 19  4  1  0  0  0  0
 20  5  1  0  0  0  0
 21  6  1  0  0  0  0
 25 12  1  0  0  0  0
 26 13  1  0  0  0  0
M  END
$$$$
