O=C(C1=CC=CC=C1)/N=C/C2=CC=C(OC)C=C2
 OpenBabel09032014123D

 31 32  0  0  0  0  0  0  0  0999 V2000
   -2.6774   -2.0110    1.0493 O   0  0  0  0  0  0  0  0  0  0  0  0
   -2.3293   -0.9959    0.4544 C   0  0  0  0  0  0  0  0  0  0  0  0
   -3.3667   -0.1250   -0.1796 C   0  0  0  0  0  0  0  0  0  0  0  0
   -3.0155    1.0437   -0.8691 C   0  0  0  0  0  0  0  0  0  0  0  0
   -4.0037    1.8398   -1.4523 C   0  0  0  0  0  0  0  0  0  0  0  0
   -5.3454    1.4739   -1.3504 C   0  0  0  0  0  0  0  0  0  0  0  0
   -5.7037    0.3128   -0.6662 C   0  0  0  0  0  0  0  0  0  0  0  0
   -4.7180   -0.4856   -0.0819 C   0  0  0  0  0  0  0  0  0  0  0  0
   -1.0269   -0.5689    0.3110 N   0  0  0  0  0  0  0  0  0  0  0  0
   -0.1151   -1.3097    0.8530 C   0  0  0  0  0  0  0  0  0  0  0  0
    1.3178   -0.9618    0.7707 C   0  0  0  0  0  0  0  0  0  0  0  0
    1.7424    0.1878    0.0996 C   0  0  0  0  0  0  0  0  0  0  0  0
    3.1054    0.4986    0.0337 C   0  0  0  0  0  0  0  0  0  0  0  0
    4.0454   -0.3384    0.6378 C   0  0  0  0  0  0  0  0  0  0  0  0
    5.4003   -0.1524    0.6482 O   0  0  0  0  0  0  0  0  0  0  0  0
    5.8966    1.0015   -0.0188 C   0  0  0  0  0  0  0  0  0  0  0  0
    3.6105   -1.4870    1.3072 C   0  0  0  0  0  0  0  0  0  0  0  0
    2.2513   -1.8030    1.3767 C   0  0  0  0  0  0  0  0  0  0  0  0
   -1.9744    1.3434   -0.9580 H   0  0  0  0  0  0  0  0  0  0  0  0
   -3.7248    2.7451   -1.9858 H   0  0  0  0  0  0  0  0  0  0  0  0
   -6.1133    2.0949   -1.8051 H   0  0  0  0  0  0  0  0  0  0  0  0
   -6.7499    0.0278   -0.5870 H   0  0  0  0  0  0  0  0  0  0  0  0
   -5.0075   -1.3898    0.4499 H   0  0  0  0  0  0  0  0  0  0  0  0
   -0.3577   -2.2379    1.4040 H   0  0  0  0  0  0  0  0  0  0  0  0
    1.0195    0.8471   -0.3746 H   0  0  0  0  0  0  0  0  0  0  0  0
    3.3958    1.3997   -0.4962 H   0  0  0  0  0  0  0  0  0  0  0  0
    5.6603    0.9717   -1.0876 H   0  0  0  0  0  0  0  0  0  0  0  0
    5.5185    1.9185    0.4450 H   0  0  0  0  0  0  0  0  0  0  0  0
    6.9862    1.0026    0.0813 H   0  0  0  0  0  0  0  0  0  0  0  0
    4.3400   -2.1413    1.7789 H   0  0  0  0  0  0  0  0  0  0  0  0
    1.9395   -2.7013    1.9028 H   0  0  0  0  0  0  0  0  0  0  0  0
  2  1  2  0  0  0  0
  3  8  1  0  0  0  0
  3  2  1  0  0  0  0
  4  3  2  0  0  0  0
  5  6  2  0  0  0  0
  5  4  1  0  0  0  0
  6  7  1  0  0  0  0
  7 22  1  0  0  0  0
  7  8  2  0  0  0  0
  8 23  1  0  0  0  0
  9  2  1  0  0  0  0
  9 10  2  0  0  0  0
 10 24  1  0  0  0  0
 11 10  1  0  0  0  0
 11 18  2  0  0  0  0
 12 11  1  0  0  0  0
 13 12  2  0  0  0  0
 13 14  1  0  0  0  0
 14 15  1  0  0  0  0
 14 17  2  0  0  0  0
 16 29  1  0  0  0  0
 16 28  1  0  0  0  0
 16 15  1  0  0  0  0
 17 18  1  0  0  0  0
 17 30  1  0  0  0  0
 18 31  1  0  0  0  0
 19  4  1  0  0  0  0
 20  5  1  0  0  0  0
 21  6  1  0  0  0  0
 25 12  1  0  0  0  0
 26 13  1  0  0  0  0
 27 16  1  0  0  0  0
M  END
$$$$
