O=C(C1=CC=CC=C1)/N=C/C2=CC=C(Cl)C=C2Cl
 OpenBabel09032014123D

 27 28  0  0  0  0  0  0  0  0999 V2000
   -1.5112   -1.8192   -1.4291 O   0  0  0  0  0  0  0  0  0  0  0  0
   -1.2933   -0.7760   -0.8221 C   0  0  0  0  0  0  0  0  0  0  0  0
   -2.3916    0.2270   -0.6673 C   0  0  0  0  0  0  0  0  0  0  0  0
   -2.1873    1.4325    0.0184 C   0  0  0  0  0  0  0  0  0  0  0  0
   -3.2302    2.3522    0.1487 C   0  0  0  0  0  0  0  0  0  0  0  0
   -4.4798    2.0736   -0.4038 C   0  0  0  0  0  0  0  0  0  0  0  0
   -4.6914    0.8768   -1.0875 C   0  0  0  0  0  0  0  0  0  0  0  0
   -3.6509   -0.0451   -1.2197 C   0  0  0  0  0  0  0  0  0  0  0  0
   -0.0883   -0.4293   -0.2493 N   0  0  0  0  0  0  0  0  0  0  0  0
    0.8793   -1.2826   -0.3701 C   0  0  0  0  0  0  0  0  0  0  0  0
    2.2173   -1.0117    0.2074 C   0  0  0  0  0  0  0  0  0  0  0  0
    2.4240    0.1955    0.8943 C   0  0  0  0  0  0  0  0  0  0  0  0
    3.6703    0.4873    1.4525 C   0  0  0  0  0  0  0  0  0  0  0  0
    4.7132   -0.4259    1.3261 C   0  0  0  0  0  0  0  0  0  0  0  0
    6.2487   -0.0676    2.0132 Cl  0  0  0  0  0  0  0  0  0  0  0  0
    4.5226   -1.6277    0.6472 C   0  0  0  0  0  0  0  0  0  0  0  0
    3.2750   -1.9238    0.0862 C   0  0  0  0  0  0  0  0  0  0  0  0
    3.1249   -3.4349   -0.7380 Cl  0  0  0  0  0  0  0  0  0  0  0  0
   -1.2200    1.6658    0.4552 H   0  0  0  0  0  0  0  0  0  0  0  0
   -3.0670    3.2858    0.6814 H   0  0  0  0  0  0  0  0  0  0  0  0
   -5.2905    2.7908   -0.3014 H   0  0  0  0  0  0  0  0  0  0  0  0
   -5.6659    0.6602   -1.5181 H   0  0  0  0  0  0  0  0  0  0  0  0
   -3.8260   -0.9763   -1.7550 H   0  0  0  0  0  0  0  0  0  0  0  0
    0.7398   -2.2375   -0.9060 H   0  0  0  0  0  0  0  0  0  0  0  0
    1.6166    0.9175    0.9999 H   0  0  0  0  0  0  0  0  0  0  0  0
    3.8167    1.4259    1.9819 H   0  0  0  0  0  0  0  0  0  0  0  0
    5.3449   -2.3331    0.5549 H   0  0  0  0  0  0  0  0  0  0  0  0
  1  2  2  0  0  0  0
  2  3  1  0  0  0  0
  2  9  1  0  0  0  0
  3  4  2  0  0  0  0
  4  5  1  0  0  0  0
  4 19  1  0  0  0  0
  5 20  1  0  0  0  0
  6 21  1  0  0  0  0
  6  5  2  0  0  0  0
  7  6  1  0  0  0  0
  8  7  2  0  0  0  0
  8  3  1  0  0  0  0
 10  9  2  0  0  0  0
 10 11  1  0  0  0  0
 11 12  1  0  0  0  0
 12 25  1  0  0  0  0
 12 13  2  0  0  0  0
 13 26  1  0  0  0  0
 14 13  1  0  0  0  0
 14 15  1  0  0  0  0
 16 14  2  0  0  0  0
 17 11  2  0  0  0  0
 17 16  1  0  0  0  0
 18 17  1  0  0  0  0
 22  7  1  0  0  0  0
 23  8  1  0  0  0  0
 24 10  1  0  0  0  0
 27 16  1  0  0  0  0
M  END
$$$$
