O=P1(O)OC2=C(C3=CC=CC=C3)C=C4C(C=CC=C4)=C2C5=C(O1)C(C6=CC=CC=C6)=CC7=C5C=CC=C7
 OpenBabel09032010373D

 58 64  0  0  0  0  0  0  0  0999 V2000
   -0.8880   -3.3394    0.3790 O   0  0  0  0  0  0  0  0  0  0  0  0
   -0.0898   -2.2304   -0.2318 P   0  0  0  0  0  0  0  0  0  0  0  0
    0.9676   -2.7871   -1.3095 O   0  0  0  0  0  0  0  0  0  0  0  0
   -0.9098   -1.1101   -1.0493 O   0  0  0  0  0  0  0  0  0  0  0  0
   -1.5213   -0.1133   -0.3194 C   0  0  0  0  0  0  0  0  0  0  0  0
   -2.9262   -0.1048   -0.3032 C   0  0  0  0  0  0  0  0  0  0  0  0
   -3.7296   -1.1015   -1.0224 C   0  0  0  0  0  0  0  0  0  0  0  0
   -4.2963   -0.7962   -2.2697 C   0  0  0  0  0  0  0  0  0  0  0  0
   -5.0688   -1.7378   -2.9535 C   0  0  0  0  0  0  0  0  0  0  0  0
   -5.2846   -2.9972   -2.3986 C   0  0  0  0  0  0  0  0  0  0  0  0
   -4.7297   -3.3152   -1.1611 C   0  0  0  0  0  0  0  0  0  0  0  0
   -3.9598   -2.3725   -0.4764 C   0  0  0  0  0  0  0  0  0  0  0  0
   -3.5674    0.9046    0.4167 C   0  0  0  0  0  0  0  0  0  0  0  0
   -2.8438    1.8639    1.1301 C   0  0  0  0  0  0  0  0  0  0  0  0
   -1.4236    1.8540    1.1000 C   0  0  0  0  0  0  0  0  0  0  0  0
   -0.7732    2.8058    1.9264 C   0  0  0  0  0  0  0  0  0  0  0  0
   -1.4739    3.7496    2.6824 C   0  0  0  0  0  0  0  0  0  0  0  0
   -2.8589    3.7649    2.6536 C   0  0  0  0  0  0  0  0  0  0  0  0
   -3.5385    2.8228    1.8870 C   0  0  0  0  0  0  0  0  0  0  0  0
   -0.7206    0.8794    0.3026 C   0  0  0  0  0  0  0  0  0  0  0  0
    0.7156    0.8853    0.1023 C   0  0  0  0  0  0  0  0  0  0  0  0
    1.4757   -0.2784    0.3744 C   0  0  0  0  0  0  0  0  0  0  0  0
    0.8323   -1.4166    0.8074 O   0  0  0  0  0  0  0  0  0  0  0  0
    2.8787   -0.3432    0.2910 C   0  0  0  0  0  0  0  0  0  0  0  0
    3.6266   -1.5763    0.5886 C   0  0  0  0  0  0  0  0  0  0  0  0
    3.6159   -2.1388    1.8746 C   0  0  0  0  0  0  0  0  0  0  0  0
    4.3115   -3.3188    2.1471 C   0  0  0  0  0  0  0  0  0  0  0  0
    5.0303   -3.9537    1.1371 C   0  0  0  0  0  0  0  0  0  0  0  0
    5.0551   -3.4099   -0.1449 C   0  0  0  0  0  0  0  0  0  0  0  0
    4.3590   -2.2297   -0.4164 C   0  0  0  0  0  0  0  0  0  0  0  0
    3.5596    0.8084   -0.1058 C   0  0  0  0  0  0  0  0  0  0  0  0
    2.8765    1.9790   -0.4483 C   0  0  0  0  0  0  0  0  0  0  0  0
    1.4579    2.0272   -0.3749 C   0  0  0  0  0  0  0  0  0  0  0  0
    0.8490    3.2191   -0.8445 C   0  0  0  0  0  0  0  0  0  0  0  0
    1.5886    4.3190   -1.2879 C   0  0  0  0  0  0  0  0  0  0  0  0
    2.9724    4.2602   -1.2976 C   0  0  0  0  0  0  0  0  0  0  0  0
    3.6109    3.0937   -0.8875 C   0  0  0  0  0  0  0  0  0  0  0  0
    1.4033   -3.5889   -0.9675 H   0  0  0  0  0  0  0  0  0  0  0  0
   -4.1305    0.1808   -2.7188 H   0  0  0  0  0  0  0  0  0  0  0  0
   -5.4969   -1.4882   -3.9206 H   0  0  0  0  0  0  0  0  0  0  0  0
   -5.8815   -3.7323   -2.9316 H   0  0  0  0  0  0  0  0  0  0  0  0
   -4.8887   -4.2987   -0.7269 H   0  0  0  0  0  0  0  0  0  0  0  0
   -3.5305   -2.6415    0.4872 H   0  0  0  0  0  0  0  0  0  0  0  0
   -4.6570    0.9190    0.4396 H   0  0  0  0  0  0  0  0  0  0  0  0
    0.3125    2.8175    2.0054 H   0  0  0  0  0  0  0  0  0  0  0  0
   -0.9302    4.4637    3.2950 H   0  0  0  0  0  0  0  0  0  0  0  0
   -3.4117    4.4945    3.2387 H   0  0  0  0  0  0  0  0  0  0  0  0
   -4.6271    2.8342    1.8968 H   0  0  0  0  0  0  0  0  0  0  0  0
    3.0578   -1.6568    2.6754 H   0  0  0  0  0  0  0  0  0  0  0  0
    4.2908   -3.7391    3.1493 H   0  0  0  0  0  0  0  0  0  0  0  0
    5.5734   -4.8708    1.3503 H   0  0  0  0  0  0  0  0  0  0  0  0
    5.6165   -3.9024   -0.9348 H   0  0  0  0  0  0  0  0  0  0  0  0
    4.3802   -1.8244   -1.4267 H   0  0  0  0  0  0  0  0  0  0  0  0
    4.6473    0.7805   -0.1665 H   0  0  0  0  0  0  0  0  0  0  0  0
   -0.2353    3.3060   -0.8857 H   0  0  0  0  0  0  0  0  0  0  0  0
    1.0751    5.2136   -1.6299 H   0  0  0  0  0  0  0  0  0  0  0  0
    3.5552    5.1103   -1.6411 H   0  0  0  0  0  0  0  0  0  0  0  0
    4.6981    3.0570   -0.9286 H   0  0  0  0  0  0  0  0  0  0  0  0
  2  1  2  0  0  0  0
  2 23  1  0  0  0  0
  3 38  1  0  0  0  0
  3  2  1  0  0  0  0
  4  5  1  0  0  0  0
  4  2  1  0  0  0  0
  5  6  2  0  0  0  0
  5 20  1  0  0  0  0
  6 13  1  0  0  0  0
  7 12  1  0  0  0  0
  7  6  1  0  0  0  0
  8  7  2  0  0  0  0
  9 10  2  0  0  0  0
  9  8  1  0  0  0  0
 10 11  1  0  0  0  0
 11 42  1  0  0  0  0
 11 12  2  0  0  0  0
 12 43  1  0  0  0  0
 13 44  1  0  0  0  0
 13 14  2  0  0  0  0
 14 19  1  0  0  0  0
 15 14  1  0  0  0  0
 15 16  1  0  0  0  0
 16 45  1  0  0  0  0
 16 17  2  0  0  0  0
 17 46  1  0  0  0  0
 18 17  1  0  0  0  0
 18 47  1  0  0  0  0
 19 48  1  0  0  0  0
 19 18  2  0  0  0  0
 20 15  2  0  0  0  0
 21 20  1  0  0  0  0
 21 22  2  0  0  0  0
 22 23  1  0  0  0  0
 24 22  1  0  0  0  0
 24 25  1  0  0  0  0
 25 26  2  0  0  0  0
 26 27  1  0  0  0  0
 26 49  1  0  0  0  0
 27 50  1  0  0  0  0
 28 51  1  0  0  0  0
 28 27  2  0  0  0  0
 29 28  1  0  0  0  0
 30 29  2  0  0  0  0
 30 25  1  0  0  0  0
 31 24  2  0  0  0  0
 32 33  1  0  0  0  0
 32 31  1  0  0  0  0
 33 21  1  0  0  0  0
 34 33  2  0  0  0  0
 35 34  1  0  0  0  0
 36 35  2  0  0  0  0
 36 37  1  0  0  0  0
 37 32  2  0  0  0  0
 39  8  1  0  0  0  0
 40  9  1  0  0  0  0
 41 10  1  0  0  0  0
 52 29  1  0  0  0  0
 53 30  1  0  0  0  0
 54 31  1  0  0  0  0
 55 34  1  0  0  0  0
 56 35  1  0  0  0  0
 57 36  1  0  0  0  0
 58 37  1  0  0  0  0
M  END
$$$$
