O=P1(O)OC2=C(C3=CC=C(C4CCCCC4)C=C3)C=C5C(CCCC5)=C2C6=C(O1)C(C7=CC=C(C8CCCCC8)C=C7)=CC9=C6CCCC9
 OpenBabel09032010373D

 98106  0  0  0  0  0  0  0  0999 V2000
    0.3808    1.3753    1.4361 O   0  0  0  0  0  0  0  0  0  0  0  0
   -0.0199    0.4935    0.2952 P   0  0  0  0  0  0  0  0  0  0  0  0
   -0.7110    1.3369   -0.8894 O   0  0  0  0  0  0  0  0  0  0  0  0
   -1.1331   -0.6133    0.6565 O   0  0  0  0  0  0  0  0  0  0  0  0
   -1.4330   -1.5890   -0.2704 C   0  0  0  0  0  0  0  0  0  0  0  0
   -2.7172   -1.5311   -0.8557 C   0  0  0  0  0  0  0  0  0  0  0  0
   -3.6731   -0.4525   -0.5467 C   0  0  0  0  0  0  0  0  0  0  0  0
   -4.1152    0.4241   -1.5490 C   0  0  0  0  0  0  0  0  0  0  0  0
   -5.0074    1.4616   -1.2590 C   0  0  0  0  0  0  0  0  0  0  0  0
   -5.4819    1.6541    0.0451 C   0  0  0  0  0  0  0  0  0  0  0  0
   -6.4543    2.7696    0.3853 C   0  0  0  0  0  0  0  0  0  0  0  0
   -7.8558    2.4970   -0.1986 C   0  0  0  0  0  0  0  0  0  0  0  0
   -8.6865    3.7672   -0.4061 C   0  0  0  0  0  0  0  0  0  0  0  0
   -8.3237    4.8573    0.5927 C   0  0  0  0  0  0  0  0  0  0  0  0
   -6.8559    5.2729    0.4769 C   0  0  0  0  0  0  0  0  0  0  0  0
   -5.9398    4.1553   -0.0311 C   0  0  0  0  0  0  0  0  0  0  0  0
   -5.0492    0.7759    1.0474 C   0  0  0  0  0  0  0  0  0  0  0  0
   -4.1584   -0.2616    0.7544 C   0  0  0  0  0  0  0  0  0  0  0  0
   -3.0604   -2.5267   -1.7725 C   0  0  0  0  0  0  0  0  0  0  0  0
   -2.1514   -3.5320   -2.1060 C   0  0  0  0  0  0  0  0  0  0  0  0
   -0.8621   -3.5618   -1.5176 C   0  0  0  0  0  0  0  0  0  0  0  0
    0.1085   -4.5408   -2.1561 C   0  0  0  0  0  0  0  0  0  0  0  0
   -0.4988   -5.9329   -2.3529 C   0  0  0  0  0  0  0  0  0  0  0  0
   -1.9789   -5.9320   -2.7471 C   0  0  0  0  0  0  0  0  0  0  0  0
   -2.5003   -4.5582   -3.1570 C   0  0  0  0  0  0  0  0  0  0  0  0
   -0.4748   -2.6018   -0.5368 C   0  0  0  0  0  0  0  0  0  0  0  0
    0.7982   -2.6091    0.1475 C   0  0  0  0  0  0  0  0  0  0  0  0
    1.6232   -1.4536    0.1567 C   0  0  0  0  0  0  0  0  0  0  0  0
    1.1605   -0.3071   -0.4538 O   0  0  0  0  0  0  0  0  0  0  0  0
    2.9169   -1.4070    0.7170 C   0  0  0  0  0  0  0  0  0  0  0  0
    3.7607   -0.2033    0.6511 C   0  0  0  0  0  0  0  0  0  0  0  0
    4.1115    0.4950    1.8147 C   0  0  0  0  0  0  0  0  0  0  0  0
    4.9176    1.6366    1.7536 C   0  0  0  0  0  0  0  0  0  0  0  0
    5.3972    2.1112    0.5255 C   0  0  0  0  0  0  0  0  0  0  0  0
    6.2643    3.3570    0.4838 C   0  0  0  0  0  0  0  0  0  0  0  0
    7.6661    3.0614   -0.0776 C   0  0  0  0  0  0  0  0  0  0  0  0
    8.5324    4.3195   -0.1071 C   0  0  0  0  0  0  0  0  0  0  0  0
    7.8551    5.4516   -0.8738 C   0  0  0  0  0  0  0  0  0  0  0  0
    6.4628    5.7500   -0.3251 C   0  0  0  0  0  0  0  0  0  0  0  0
    5.5879    4.4979   -0.2961 C   0  0  0  0  0  0  0  0  0  0  0  0
    5.0478    1.4152   -0.6394 C   0  0  0  0  0  0  0  0  0  0  0  0
    4.2414    0.2744   -0.5760 C   0  0  0  0  0  0  0  0  0  0  0  0
    3.3973   -2.5572    1.3480 C   0  0  0  0  0  0  0  0  0  0  0  0
    2.6032   -3.7003    1.4440 C   0  0  0  0  0  0  0  0  0  0  0  0
    1.3114   -3.7280    0.8652 C   0  0  0  0  0  0  0  0  0  0  0  0
    0.5060   -4.9896    1.1280 C   0  0  0  0  0  0  0  0  0  0  0  0
    0.6239   -5.4085    2.5948 C   0  0  0  0  0  0  0  0  0  0  0  0
    2.0683   -5.5147    3.0960 C   0  0  0  0  0  0  0  0  0  0  0  0
    3.1115   -4.9370    2.1400 C   0  0  0  0  0  0  0  0  0  0  0  0
   -1.3510    1.9704   -0.5168 H   0  0  0  0  0  0  0  0  0  0  0  0
   -3.7548    0.3101   -2.5699 H   0  0  0  0  0  0  0  0  0  0  0  0
   -5.3307    2.1144   -2.0668 H   0  0  0  0  0  0  0  0  0  0  0  0
   -6.5586    2.7957    1.4801 H   0  0  0  0  0  0  0  0  0  0  0  0
   -7.8021    1.9655   -1.1569 H   0  0  0  0  0  0  0  0  0  0  0  0
   -8.3889    1.8208    0.4828 H   0  0  0  0  0  0  0  0  0  0  0  0
   -9.7525    3.5241   -0.3319 H   0  0  0  0  0  0  0  0  0  0  0  0
   -8.5228    4.1445   -1.4235 H   0  0  0  0  0  0  0  0  0  0  0  0
   -8.5189    4.4921    1.6090 H   0  0  0  0  0  0  0  0  0  0  0  0
   -8.9658    5.7336    0.4491 H   0  0  0  0  0  0  0  0  0  0  0  0
   -6.7659    6.1334   -0.1972 H   0  0  0  0  0  0  0  0  0  0  0  0
   -6.5103    5.6181    1.4590 H   0  0  0  0  0  0  0  0  0  0  0  0
   -4.9221    4.3240    0.3421 H   0  0  0  0  0  0  0  0  0  0  0  0
   -5.8791    4.2222   -1.1252 H   0  0  0  0  0  0  0  0  0  0  0  0
   -5.4008    0.8888    2.0709 H   0  0  0  0  0  0  0  0  0  0  0  0
   -3.8395   -0.9250    1.5567 H   0  0  0  0  0  0  0  0  0  0  0  0
   -4.0422   -2.5099   -2.2429 H   0  0  0  0  0  0  0  0  0  0  0  0
    0.3836   -4.1273   -3.1364 H   0  0  0  0  0  0  0  0  0  0  0  0
    1.0499   -4.6369   -1.6125 H   0  0  0  0  0  0  0  0  0  0  0  0
    0.0859   -6.4683   -3.1110 H   0  0  0  0  0  0  0  0  0  0  0  0
   -0.3919   -6.5150   -1.4294 H   0  0  0  0  0  0  0  0  0  0  0  0
   -2.5638   -6.2898   -1.8888 H   0  0  0  0  0  0  0  0  0  0  0  0
   -2.1512   -6.6545   -3.5532 H   0  0  0  0  0  0  0  0  0  0  0  0
   -3.5864   -4.6171   -3.2939 H   0  0  0  0  0  0  0  0  0  0  0  0
   -2.0648   -4.2500   -4.1151 H   0  0  0  0  0  0  0  0  0  0  0  0
    3.7417    0.1626    2.7826 H   0  0  0  0  0  0  0  0  0  0  0  0
    5.1585    2.1561    2.6784 H   0  0  0  0  0  0  0  0  0  0  0  0
    6.4005    3.7099    1.5163 H   0  0  0  0  0  0  0  0  0  0  0  0
    8.1610    2.2944    0.5310 H   0  0  0  0  0  0  0  0  0  0  0  0
    7.5979    2.6561   -1.0952 H   0  0  0  0  0  0  0  0  0  0  0  0
    8.7378    4.6453    0.9200 H   0  0  0  0  0  0  0  0  0  0  0  0
    9.4996    4.0895   -0.5681 H   0  0  0  0  0  0  0  0  0  0  0  0
    8.4735    6.3546   -0.8199 H   0  0  0  0  0  0  0  0  0  0  0  0
    7.7785    5.1793   -1.9337 H   0  0  0  0  0  0  0  0  0  0  0  0
    5.9824    6.5204   -0.9387 H   0  0  0  0  0  0  0  0  0  0  0  0
    6.5496    6.1580    0.6894 H   0  0  0  0  0  0  0  0  0  0  0  0
    5.3784    4.1894   -1.3282 H   0  0  0  0  0  0  0  0  0  0  0  0
    4.6199    4.7424    0.1588 H   0  0  0  0  0  0  0  0  0  0  0  0
    5.3941    1.7548   -1.6124 H   0  0  0  0  0  0  0  0  0  0  0  0
    3.9838   -0.2422   -1.4985 H   0  0  0  0  0  0  0  0  0  0  0  0
    4.3968   -2.5545    1.7797 H   0  0  0  0  0  0  0  0  0  0  0  0
    0.8798   -5.7925    0.4829 H   0  0  0  0  0  0  0  0  0  0  0  0
   -0.5562   -4.8496    0.9076 H   0  0  0  0  0  0  0  0  0  0  0  0
    0.0960   -4.6718    3.2155 H   0  0  0  0  0  0  0  0  0  0  0  0
    0.1066   -6.3624    2.7514 H   0  0  0  0  0  0  0  0  0  0  0  0
    2.1351   -4.9953    4.0610 H   0  0  0  0  0  0  0  0  0  0  0  0
    2.3161   -6.5626    3.3040 H   0  0  0  0  0  0  0  0  0  0  0  0
    4.0326   -4.7283    2.6967 H   0  0  0  0  0  0  0  0  0  0  0  0
    3.3681   -5.6790    1.3732 H   0  0  0  0  0  0  0  0  0  0  0  0
  2  4  1  0  0  0  0
  2  1  2  0  0  0  0
  3 50  1  0  0  0  0
  3  2  1  0  0  0  0
  5  4  1  0  0  0  0
  6  7  1  0  0  0  0
  6  5  2  0  0  0  0
  7 18  2  0  0  0  0
  8  9  2  0  0  0  0
  8  7  1  0  0  0  0
  9 10  1  0  0  0  0
 10 11  1  0  0  0  0
 10 17  2  0  0  0  0
 11 53  1  0  0  0  0
 12 11  1  0  0  0  0
 12 55  1  0  0  0  0
 13 56  1  0  0  0  0
 13 12  1  0  0  0  0
 13 14  1  0  0  0  0
 14 58  1  0  0  0  0
 15 14  1  0  0  0  0
 15 61  1  0  0  0  0
 16 62  1  0  0  0  0
 16 11  1  0  0  0  0
 16 15  1  0  0  0  0
 17 64  1  0  0  0  0
 18 17  1  0  0  0  0
 18 65  1  0  0  0  0
 19  6  1  0  0  0  0
 20 19  2  0  0  0  0
 20 21  1  0  0  0  0
 21 26  2  0  0  0  0
 22 68  1  0  0  0  0
 22 21  1  0  0  0  0
 23 22  1  0  0  0  0
 23 70  1  0  0  0  0
 24 23  1  0  0  0  0
 24 71  1  0  0  0  0
 25 24  1  0  0  0  0
 25 20  1  0  0  0  0
 26  5  1  0  0  0  0
 26 27  1  0  0  0  0
 27 28  2  0  0  0  0
 27 45  1  0  0  0  0
 28 30  1  0  0  0  0
 29 28  1  0  0  0  0
 29  2  1  0  0  0  0
 30 43  2  0  0  0  0
 31 30  1  0  0  0  0
 31 32  2  0  0  0  0
 32 75  1  0  0  0  0
 33 32  1  0  0  0  0
 33 76  1  0  0  0  0
 34 33  2  0  0  0  0
 35 34  1  0  0  0  0
 35 77  1  0  0  0  0
 36 35  1  0  0  0  0
 36 78  1  0  0  0  0
 37 36  1  0  0  0  0
 37 80  1  0  0  0  0
 38 82  1  0  0  0  0
 38 39  1  0  0  0  0
 38 37  1  0  0  0  0
 39 40  1  0  0  0  0
 39 85  1  0  0  0  0
 40 87  1  0  0  0  0
 40 35  1  0  0  0  0
 41 42  2  0  0  0  0
 41 34  1  0  0  0  0
 42 31  1  0  0  0  0
 43 44  1  0  0  0  0
 43 90  1  0  0  0  0
 44 49  1  0  0  0  0
 45 46  1  0  0  0  0
 45 44  2  0  0  0  0
 46 47  1  0  0  0  0
 47 94  1  0  0  0  0
 47 48  1  0  0  0  0
 47 93  1  0  0  0  0
 48 96  1  0  0  0  0
 48 95  1  0  0  0  0
 49 97  1  0  0  0  0
 49 48  1  0  0  0  0
 51  8  1  0  0  0  0
 52  9  1  0  0  0  0
 54 12  1  0  0  0  0
 57 13  1  0  0  0  0
 59 14  1  0  0  0  0
 60 15  1  0  0  0  0
 63 16  1  0  0  0  0
 66 19  1  0  0  0  0
 67 22  1  0  0  0  0
 69 23  1  0  0  0  0
 72 24  1  0  0  0  0
 73 25  1  0  0  0  0
 74 25  1  0  0  0  0
 79 36  1  0  0  0  0
 81 37  1  0  0  0  0
 83 38  1  0  0  0  0
 84 39  1  0  0  0  0
 86 40  1  0  0  0  0
 88 41  1  0  0  0  0
 89 42  1  0  0  0  0
 91 46  1  0  0  0  0
 92 46  1  0  0  0  0
 98 49  1  0  0  0  0
M  END
$$$$
