O=P1(O)OC2=C(C3=C(C4=CC(C=CC=C5)=C5C=C4)C=CC=C3)C=C6C(CCCC6)=C2C7=C(O1)C(C8=CC=CC=C8C9=CC=C(C=CC=C%10)C%10=C9)=CC%11=C7CCCC%11
 OpenBabel09032010383D

 98108  0  0  0  0  0  0  0  0999 V2000
   -1.7751   -2.5508   -1.1423 O   0  0  0  0  0  0  0  0  0  0  0  0
   -0.6349   -1.8985   -1.8606 P   0  0  0  0  0  0  0  0  0  0  0  0
   -0.1632   -2.8071   -3.1064 O   0  0  0  0  0  0  0  0  0  0  0  0
    0.7083   -1.7444   -0.9989 O   0  0  0  0  0  0  0  0  0  0  0  0
    1.7428   -0.9690   -1.4643 C   0  0  0  0  0  0  0  0  0  0  0  0
    2.9687   -1.6256   -1.7114 C   0  0  0  0  0  0  0  0  0  0  0  0
    3.1650   -3.0756   -1.4729 C   0  0  0  0  0  0  0  0  0  0  0  0
    3.0959   -3.6636   -0.1797 C   0  0  0  0  0  0  0  0  0  0  0  0
    2.7675   -2.8810    1.0278 C   0  0  0  0  0  0  0  0  0  0  0  0
    1.5546   -3.1062    1.7028 C   0  0  0  0  0  0  0  0  0  0  0  0
    1.1419   -2.2867    2.7641 C   0  0  0  0  0  0  0  0  0  0  0  0
   -0.0949   -2.4841    3.3980 C   0  0  0  0  0  0  0  0  0  0  0  0
   -0.5153   -1.6278    4.4146 C   0  0  0  0  0  0  0  0  0  0  0  0
    0.3010   -0.5759    4.8195 C   0  0  0  0  0  0  0  0  0  0  0  0
    1.5440   -0.3816    4.2155 C   0  0  0  0  0  0  0  0  0  0  0  0
    1.9769   -1.2277    3.1834 C   0  0  0  0  0  0  0  0  0  0  0  0
    3.2135   -1.0368    2.5500 C   0  0  0  0  0  0  0  0  0  0  0  0
    3.6032   -1.8549    1.4864 C   0  0  0  0  0  0  0  0  0  0  0  0
    3.3120   -5.0504   -0.0508 C   0  0  0  0  0  0  0  0  0  0  0  0
    3.5855   -5.8487   -1.1615 C   0  0  0  0  0  0  0  0  0  0  0  0
    3.6439   -5.2772   -2.4264 C   0  0  0  0  0  0  0  0  0  0  0  0
    3.4370   -3.9063   -2.5796 C   0  0  0  0  0  0  0  0  0  0  0  0
    4.0389   -0.8574   -2.1832 C   0  0  0  0  0  0  0  0  0  0  0  0
    3.8851    0.5077   -2.4225 C   0  0  0  0  0  0  0  0  0  0  0  0
    2.6550    1.1475   -2.1424 C   0  0  0  0  0  0  0  0  0  0  0  0
    2.5747    2.6160   -2.5322 C   0  0  0  0  0  0  0  0  0  0  0  0
    3.1841    2.8379   -3.9180 C   0  0  0  0  0  0  0  0  0  0  0  0
    4.5948    2.2612   -4.0770 C   0  0  0  0  0  0  0  0  0  0  0  0
    5.0315    1.3367   -2.9411 C   0  0  0  0  0  0  0  0  0  0  0  0
    1.5572    0.4309   -1.5843 C   0  0  0  0  0  0  0  0  0  0  0  0
    0.3264    1.0638   -1.1781 C   0  0  0  0  0  0  0  0  0  0  0  0
   -0.9125    0.6383   -1.7211 C   0  0  0  0  0  0  0  0  0  0  0  0
   -0.9267   -0.4690   -2.5402 O   0  0  0  0  0  0  0  0  0  0  0  0
   -2.1329    1.3152   -1.5235 C   0  0  0  0  0  0  0  0  0  0  0  0
   -3.3959    0.8930   -2.1773 C   0  0  0  0  0  0  0  0  0  0  0  0
   -3.4451    0.8535   -3.5879 C   0  0  0  0  0  0  0  0  0  0  0  0
   -4.6013    0.4767   -4.2720 C   0  0  0  0  0  0  0  0  0  0  0  0
   -5.7428    0.1343   -3.5611 C   0  0  0  0  0  0  0  0  0  0  0  0
   -5.7266    0.1726   -2.1676 C   0  0  0  0  0  0  0  0  0  0  0  0
   -4.5692    0.5495   -1.4537 C   0  0  0  0  0  0  0  0  0  0  0  0
   -4.6427    0.5655    0.0189 C   0  0  0  0  0  0  0  0  0  0  0  0
   -5.3923    1.5475    0.6828 C   0  0  0  0  0  0  0  0  0  0  0  0
   -5.4665    1.5729    2.0778 C   0  0  0  0  0  0  0  0  0  0  0  0
   -4.7992    0.6088    2.8461 C   0  0  0  0  0  0  0  0  0  0  0  0
   -4.8649    0.6169    4.2488 C   0  0  0  0  0  0  0  0  0  0  0  0
   -4.2013   -0.3549    4.9992 C   0  0  0  0  0  0  0  0  0  0  0  0
   -3.4647   -1.3459    4.3572 C   0  0  0  0  0  0  0  0  0  0  0  0
   -3.3887   -1.3662    2.9637 C   0  0  0  0  0  0  0  0  0  0  0  0
   -4.0491   -0.3950    2.1939 C   0  0  0  0  0  0  0  0  0  0  0  0
   -3.9824   -0.4032    0.7898 C   0  0  0  0  0  0  0  0  0  0  0  0
   -2.1113    2.4426   -0.6981 C   0  0  0  0  0  0  0  0  0  0  0  0
   -0.9504    2.8352   -0.0198 C   0  0  0  0  0  0  0  0  0  0  0  0
    0.2651    2.1471   -0.2461 C   0  0  0  0  0  0  0  0  0  0  0  0
    1.4421    2.4385    0.6765 C   0  0  0  0  0  0  0  0  0  0  0  0
    1.4120    3.8341    1.2931 C   0  0  0  0  0  0  0  0  0  0  0  0
    0.0633    4.0844    1.9463 C   0  0  0  0  0  0  0  0  0  0  0  0
   -1.0436    4.0295    0.9017 C   0  0  0  0  0  0  0  0  0  0  0  0
   -0.2384   -3.7459   -2.8577 H   0  0  0  0  0  0  0  0  0  0  0  0
    0.8917   -3.8951    1.3509 H   0  0  0  0  0  0  0  0  0  0  0  0
   -0.7424   -3.3085    3.1094 H   0  0  0  0  0  0  0  0  0  0  0  0
   -1.4782   -1.7850    4.8930 H   0  0  0  0  0  0  0  0  0  0  0  0
   -0.0263    0.0917    5.6119 H   0  0  0  0  0  0  0  0  0  0  0  0
    2.1684    0.4437    4.5491 H   0  0  0  0  0  0  0  0  0  0  0  0
    3.8748   -0.2324    2.8626 H   0  0  0  0  0  0  0  0  0  0  0  0
    4.5518   -1.6618    0.9909 H   0  0  0  0  0  0  0  0  0  0  0  0
    3.2678   -5.5156    0.9329 H   0  0  0  0  0  0  0  0  0  0  0  0
    3.7498   -6.9157   -1.0355 H   0  0  0  0  0  0  0  0  0  0  0  0
    3.8506   -5.8952   -3.2959 H   0  0  0  0  0  0  0  0  0  0  0  0
    3.4782   -3.4775   -3.5799 H   0  0  0  0  0  0  0  0  0  0  0  0
    4.9996   -1.3331   -2.3723 H   0  0  0  0  0  0  0  0  0  0  0  0
    3.1099    3.2186   -1.7894 H   0  0  0  0  0  0  0  0  0  0  0  0
    1.5408    2.9720   -2.5665 H   0  0  0  0  0  0  0  0  0  0  0  0
    3.1929    3.9087   -4.1532 H   0  0  0  0  0  0  0  0  0  0  0  0
    2.5329    2.3684   -4.6680 H   0  0  0  0  0  0  0  0  0  0  0  0
    5.3230    3.0755   -4.1740 H   0  0  0  0  0  0  0  0  0  0  0  0
    4.6348    1.7113   -5.0265 H   0  0  0  0  0  0  0  0  0  0  0  0
    5.8531    0.7010   -3.2915 H   0  0  0  0  0  0  0  0  0  0  0  0
    5.4266    1.9308   -2.1072 H   0  0  0  0  0  0  0  0  0  0  0  0
   -2.5625    1.1212   -4.1673 H   0  0  0  0  0  0  0  0  0  0  0  0
   -4.6045    0.4499   -5.3582 H   0  0  0  0  0  0  0  0  0  0  0  0
   -6.6456   -0.1653   -4.0862 H   0  0  0  0  0  0  0  0  0  0  0  0
   -6.6289   -0.1059   -1.6249 H   0  0  0  0  0  0  0  0  0  0  0  0
   -5.9188    2.3084    0.1105 H   0  0  0  0  0  0  0  0  0  0  0  0
   -6.0524    2.3520    2.5593 H   0  0  0  0  0  0  0  0  0  0  0  0
   -5.4375    1.3819    4.7675 H   0  0  0  0  0  0  0  0  0  0  0  0
   -4.2623   -0.3387    6.0840 H   0  0  0  0  0  0  0  0  0  0  0  0
   -2.9501   -2.1055    4.9396 H   0  0  0  0  0  0  0  0  0  0  0  0
   -2.8102   -2.1493    2.4779 H   0  0  0  0  0  0  0  0  0  0  0  0
   -3.4124   -1.1812    0.2848 H   0  0  0  0  0  0  0  0  0  0  0  0
   -3.0286    3.0099   -0.5470 H   0  0  0  0  0  0  0  0  0  0  0  0
    1.4122    1.6926    1.4817 H   0  0  0  0  0  0  0  0  0  0  0  0
    2.4053    2.3193    0.1807 H   0  0  0  0  0  0  0  0  0  0  0  0
    2.2105    3.9237    2.0381 H   0  0  0  0  0  0  0  0  0  0  0  0
    1.6010    4.5912    0.5217 H   0  0  0  0  0  0  0  0  0  0  0  0
   -0.1168    3.3291    2.7218 H   0  0  0  0  0  0  0  0  0  0  0  0
    0.0564    5.0616    2.4419 H   0  0  0  0  0  0  0  0  0  0  0  0
   -2.0102    4.0286    1.4204 H   0  0  0  0  0  0  0  0  0  0  0  0
   -1.0047    4.9347    0.2825 H   0  0  0  0  0  0  0  0  0  0  0  0
  2  1  2  0  0  0  0
  2  4  1  0  0  0  0
  3 58  1  0  0  0  0
  3  2  1  0  0  0  0
  5  4  1  0  0  0  0
  6  7  1  0  0  0  0
  6  5  2  0  0  0  0
  7  8  2  0  0  0  0
  8 19  1  0  0  0  0
  8  9  1  0  0  0  0
  9 18  2  0  0  0  0
  9 10  1  0  0  0  0
 10 11  2  0  0  0  0
 11 16  1  0  0  0  0
 11 12  1  0  0  0  0
 12 13  2  0  0  0  0
 13 14  1  0  0  0  0
 13 61  1  0  0  0  0
 14 62  1  0  0  0  0
 15 63  1  0  0  0  0
 15 14  2  0  0  0  0
 16 15  1  0  0  0  0
 17 64  1  0  0  0  0
 17 16  2  0  0  0  0
 18 17  1  0  0  0  0
 19 66  1  0  0  0  0
 20 67  1  0  0  0  0
 20 19  2  0  0  0  0
 21 20  1  0  0  0  0
 22 21  2  0  0  0  0
 22  7  1  0  0  0  0
 23  6  1  0  0  0  0
 24 23  2  0  0  0  0
 24 25  1  0  0  0  0
 25 30  2  0  0  0  0
 26 25  1  0  0  0  0
 26 71  1  0  0  0  0
 27 26  1  0  0  0  0
 28 27  1  0  0  0  0
 28 29  1  0  0  0  0
 29 24  1  0  0  0  0
 29 78  1  0  0  0  0
 30  5  1  0  0  0  0
 30 31  1  0  0  0  0
 31 53  2  0  0  0  0
 32 34  2  0  0  0  0
 32 31  1  0  0  0  0
 33  2  1  0  0  0  0
 33 32  1  0  0  0  0
 34 51  1  0  0  0  0
 35 34  1  0  0  0  0
 35 40  2  0  0  0  0
 36 35  1  0  0  0  0
 37 36  2  0  0  0  0
 37 38  1  0  0  0  0
 38 39  2  0  0  0  0
 39 82  1  0  0  0  0
 39 40  1  0  0  0  0
 40 41  1  0  0  0  0
 41 42  2  0  0  0  0
 41 50  1  0  0  0  0
 42 43  1  0  0  0  0
 43 84  1  0  0  0  0
 43 44  2  0  0  0  0
 44 45  1  0  0  0  0
 45 85  1  0  0  0  0
 45 46  2  0  0  0  0
 46 86  1  0  0  0  0
 47 87  1  0  0  0  0
 47 46  1  0  0  0  0
 48 47  2  0  0  0  0
 49 44  1  0  0  0  0
 49 48  1  0  0  0  0
 50 49  2  0  0  0  0
 51 90  1  0  0  0  0
 51 52  2  0  0  0  0
 52 57  1  0  0  0  0
 53 52  1  0  0  0  0
 53 54  1  0  0  0  0
 54 55  1  0  0  0  0
 54 91  1  0  0  0  0
 55 56  1  0  0  0  0
 55 93  1  0  0  0  0
 56 96  1  0  0  0  0
 56 95  1  0  0  0  0
 57 97  1  0  0  0  0
 57 56  1  0  0  0  0
 59 10  1  0  0  0  0
 60 12  1  0  0  0  0
 65 18  1  0  0  0  0
 68 21  1  0  0  0  0
 69 22  1  0  0  0  0
 70 23  1  0  0  0  0
 72 26  1  0  0  0  0
 73 27  1  0  0  0  0
 74 27  1  0  0  0  0
 75 28  1  0  0  0  0
 76 28  1  0  0  0  0
 77 29  1  0  0  0  0
 79 36  1  0  0  0  0
 80 37  1  0  0  0  0
 81 38  1  0  0  0  0
 83 42  1  0  0  0  0
 88 48  1  0  0  0  0
 89 50  1  0  0  0  0
 92 54  1  0  0  0  0
 94 55  1  0  0  0  0
 98 57  1  0  0  0  0
M  END
$$$$
