O=P1(O)OC2=C(C3=CC=C(C4=CC=C(C=CC=C5)C5=C4)C=C3)C=C6C(C=CC=C6)=C2C7=C(O1)C(C8=CC=C(C9=CC(C=CC=C%10)=C%10C=C9)C=C8)=CC%11=C7C=CC=C%11
 OpenBabel09032010373D

 90100  0  0  0  0  0  0  0  0999 V2000
    0.2416   -1.3168   -0.6039 O   0  0  0  0  0  0  0  0  0  0  0  0
   -0.2058    0.0503   -0.1892 P   0  0  0  0  0  0  0  0  0  0  0  0
   -0.9162    0.0197    1.2542 O   0  0  0  0  0  0  0  0  0  0  0  0
   -1.3203    0.7118   -1.1441 O   0  0  0  0  0  0  0  0  0  0  0  0
   -1.6565    2.0344   -0.9575 C   0  0  0  0  0  0  0  0  0  0  0  0
   -2.9593    2.2899   -0.4932 C   0  0  0  0  0  0  0  0  0  0  0  0
   -3.8987    1.2076   -0.1622 C   0  0  0  0  0  0  0  0  0  0  0  0
   -4.2751    0.9705    1.1668 C   0  0  0  0  0  0  0  0  0  0  0  0
   -5.1529   -0.0702    1.4902 C   0  0  0  0  0  0  0  0  0  0  0  0
   -5.6860   -0.9050    0.4959 C   0  0  0  0  0  0  0  0  0  0  0  0
   -6.6084   -2.0015    0.8381 C   0  0  0  0  0  0  0  0  0  0  0  0
   -7.7295   -1.7749    1.6493 C   0  0  0  0  0  0  0  0  0  0  0  0
   -8.6040   -2.8142    1.9799 C   0  0  0  0  0  0  0  0  0  0  0  0
   -8.3838   -4.1140    1.5051 C   0  0  0  0  0  0  0  0  0  0  0  0
   -9.2535   -5.1684    1.8273 C   0  0  0  0  0  0  0  0  0  0  0  0
   -9.0201   -6.4570    1.3455 C   0  0  0  0  0  0  0  0  0  0  0  0
   -7.9160   -6.7068    0.5364 C   0  0  0  0  0  0  0  0  0  0  0  0
   -7.0424   -5.6687    0.2077 C   0  0  0  0  0  0  0  0  0  0  0  0
   -7.2628   -4.3660    0.6845 C   0  0  0  0  0  0  0  0  0  0  0  0
   -6.3924   -3.3079    0.3643 C   0  0  0  0  0  0  0  0  0  0  0  0
   -5.3101   -0.6605   -0.8338 C   0  0  0  0  0  0  0  0  0  0  0  0
   -4.4298    0.3782   -1.1581 C   0  0  0  0  0  0  0  0  0  0  0  0
   -3.3449    3.6210   -0.3319 C   0  0  0  0  0  0  0  0  0  0  0  0
   -2.4593    4.6722   -0.5857 C   0  0  0  0  0  0  0  0  0  0  0  0
   -1.1403    4.4025   -1.0415 C   0  0  0  0  0  0  0  0  0  0  0  0
   -0.2827    5.5256   -1.1683 C   0  0  0  0  0  0  0  0  0  0  0  0
   -0.7146    6.8341   -0.9339 C   0  0  0  0  0  0  0  0  0  0  0  0
   -2.0219    7.0684   -0.5412 C   0  0  0  0  0  0  0  0  0  0  0  0
   -2.8855    5.9923   -0.3607 C   0  0  0  0  0  0  0  0  0  0  0  0
   -0.7215    3.0444   -1.2938 C   0  0  0  0  0  0  0  0  0  0  0  0
    0.5692    2.6883   -1.8507 C   0  0  0  0  0  0  0  0  0  0  0  0
    1.4092    1.7713   -1.1681 C   0  0  0  0  0  0  0  0  0  0  0  0
    0.9465    1.1636   -0.0209 O   0  0  0  0  0  0  0  0  0  0  0  0
    2.7322    1.4914   -1.5506 C   0  0  0  0  0  0  0  0  0  0  0  0
    3.6061    0.6018   -0.7758 C   0  0  0  0  0  0  0  0  0  0  0  0
    3.5454   -0.7877   -0.9345 C   0  0  0  0  0  0  0  0  0  0  0  0
    4.3826   -1.6304   -0.1948 C   0  0  0  0  0  0  0  0  0  0  0  0
    5.3096   -1.1101    0.7210 C   0  0  0  0  0  0  0  0  0  0  0  0
    6.1805   -1.9990    1.5068 C   0  0  0  0  0  0  0  0  0  0  0  0
    7.5774   -1.8415    1.4980 C   0  0  0  0  0  0  0  0  0  0  0  0
    8.4218   -2.6836    2.2453 C   0  0  0  0  0  0  0  0  0  0  0  0
    9.8183   -2.5258    2.2312 C   0  0  0  0  0  0  0  0  0  0  0  0
   10.6403   -3.3702    2.9790 C   0  0  0  0  0  0  0  0  0  0  0  0
   10.0784   -4.3830    3.7503 C   0  0  0  0  0  0  0  0  0  0  0  0
    8.6935   -4.5541    3.7748 C   0  0  0  0  0  0  0  0  0  0  0  0
    7.8533   -3.7131    3.0273 C   0  0  0  0  0  0  0  0  0  0  0  0
    6.4608   -3.8731    3.0397 C   0  0  0  0  0  0  0  0  0  0  0  0
    5.6383   -3.0283    2.2889 C   0  0  0  0  0  0  0  0  0  0  0  0
    5.3722    0.2834    0.8711 C   0  0  0  0  0  0  0  0  0  0  0  0
    4.5331    1.1272    0.1343 C   0  0  0  0  0  0  0  0  0  0  0  0
    3.2244    2.1039   -2.7040 C   0  0  0  0  0  0  0  0  0  0  0  0
    2.4243    2.9475   -3.4794 C   0  0  0  0  0  0  0  0  0  0  0  0
    1.0918    3.2344   -3.0787 C   0  0  0  0  0  0  0  0  0  0  0  0
    0.3256    4.0260   -3.9718 C   0  0  0  0  0  0  0  0  0  0  0  0
    0.8562    4.5564   -5.1508 C   0  0  0  0  0  0  0  0  0  0  0  0
    2.1741    4.2981   -5.4909 C   0  0  0  0  0  0  0  0  0  0  0  0
    2.9503    3.4928   -4.6629 C   0  0  0  0  0  0  0  0  0  0  0  0
   -1.4643   -0.7816    1.3408 H   0  0  0  0  0  0  0  0  0  0  0  0
   -3.8697    1.5881    1.9666 H   0  0  0  0  0  0  0  0  0  0  0  0
   -5.4084   -0.2324    2.5358 H   0  0  0  0  0  0  0  0  0  0  0  0
   -7.9412   -0.7758    2.0251 H   0  0  0  0  0  0  0  0  0  0  0  0
   -9.4625   -2.5964    2.6108 H   0  0  0  0  0  0  0  0  0  0  0  0
  -10.1218   -4.9919    2.4580 H   0  0  0  0  0  0  0  0  0  0  0  0
   -9.7009   -7.2641    1.6021 H   0  0  0  0  0  0  0  0  0  0  0  0
   -7.7328   -7.7095    0.1594 H   0  0  0  0  0  0  0  0  0  0  0  0
   -6.1879   -5.8874   -0.4281 H   0  0  0  0  0  0  0  0  0  0  0  0
   -5.5218   -3.5101   -0.2577 H   0  0  0  0  0  0  0  0  0  0  0  0
   -5.7103   -1.2743   -1.6386 H   0  0  0  0  0  0  0  0  0  0  0  0
   -4.1594    0.5348   -2.2008 H   0  0  0  0  0  0  0  0  0  0  0  0
   -4.3534    3.8365    0.0199 H   0  0  0  0  0  0  0  0  0  0  0  0
    0.7619    5.3950   -1.4453 H   0  0  0  0  0  0  0  0  0  0  0  0
   -0.0215    7.6625   -1.0545 H   0  0  0  0  0  0  0  0  0  0  0  0
   -2.3658    8.0823   -0.3566 H   0  0  0  0  0  0  0  0  0  0  0  0
   -3.9012    6.1947   -0.0251 H   0  0  0  0  0  0  0  0  0  0  0  0
    2.8362   -1.2301   -1.6320 H   0  0  0  0  0  0  0  0  0  0  0  0
    4.3055   -2.7055   -0.3462 H   0  0  0  0  0  0  0  0  0  0  0  0
    8.0168   -1.0545    0.8872 H   0  0  0  0  0  0  0  0  0  0  0  0
   10.2763   -1.7403    1.6343 H   0  0  0  0  0  0  0  0  0  0  0  0
   11.7186   -3.2360    2.9579 H   0  0  0  0  0  0  0  0  0  0  0  0
   10.7169   -5.0412    4.3332 H   0  0  0  0  0  0  0  0  0  0  0  0
    8.2730   -5.3517    4.3831 H   0  0  0  0  0  0  0  0  0  0  0  0
    6.0004   -4.6571    3.6367 H   0  0  0  0  0  0  0  0  0  0  0  0
    4.5604   -3.1741    2.3292 H   0  0  0  0  0  0  0  0  0  0  0  0
    6.0661    0.7267    1.5822 H   0  0  0  0  0  0  0  0  0  0  0  0
    4.6003    2.2026    0.2850 H   0  0  0  0  0  0  0  0  0  0  0  0
    4.2478    1.8918   -3.0131 H   0  0  0  0  0  0  0  0  0  0  0  0
   -0.7224    4.2356   -3.7640 H   0  0  0  0  0  0  0  0  0  0  0  0
    0.2320    5.1649   -5.7997 H   0  0  0  0  0  0  0  0  0  0  0  0
    2.5943    4.7063   -6.4059 H   0  0  0  0  0  0  0  0  0  0  0  0
    3.9761    3.2808   -4.9595 H   0  0  0  0  0  0  0  0  0  0  0  0
  1  2  2  0  0  0  0
  2 33  1  0  0  0  0
  2  3  1  0  0  0  0
  3 58  1  0  0  0  0
  4  5  1  0  0  0  0
  4  2  1  0  0  0  0
  5  6  2  0  0  0  0
  6 23  1  0  0  0  0
  6  7  1  0  0  0  0
  7  8  2  0  0  0  0
  8  9  1  0  0  0  0
  8 59  1  0  0  0  0
  9 60  1  0  0  0  0
 10 11  1  0  0  0  0
 10  9  2  0  0  0  0
 11 12  2  0  0  0  0
 12 13  1  0  0  0  0
 12 61  1  0  0  0  0
 13 62  1  0  0  0  0
 14 15  1  0  0  0  0
 14 13  2  0  0  0  0
 15 63  1  0  0  0  0
 16 64  1  0  0  0  0
 16 15  2  0  0  0  0
 17 16  1  0  0  0  0
 18 17  2  0  0  0  0
 18 19  1  0  0  0  0
 19 14  1  0  0  0  0
 20 19  2  0  0  0  0
 20 11  1  0  0  0  0
 21 10  1  0  0  0  0
 22 21  2  0  0  0  0
 22  7  1  0  0  0  0
 23 70  1  0  0  0  0
 24 29  1  0  0  0  0
 24 23  2  0  0  0  0
 25 24  1  0  0  0  0
 26 25  1  0  0  0  0
 26 27  2  0  0  0  0
 27 28  1  0  0  0  0
 28 29  2  0  0  0  0
 28 73  1  0  0  0  0
 29 74  1  0  0  0  0
 30 25  2  0  0  0  0
 30  5  1  0  0  0  0
 31 30  1  0  0  0  0
 31 32  2  0  0  0  0
 32 33  1  0  0  0  0
 34 32  1  0  0  0  0
 34 35  1  0  0  0  0
 35 50  1  0  0  0  0
 36 35  2  0  0  0  0
 36 37  1  0  0  0  0
 37 38  2  0  0  0  0
 38 49  1  0  0  0  0
 38 39  1  0  0  0  0
 39 48  1  0  0  0  0
 40 39  2  0  0  0  0
 40 41  1  0  0  0  0
 41 46  1  0  0  0  0
 42 41  2  0  0  0  0
 42 43  1  0  0  0  0
 43 44  2  0  0  0  0
 44 45  1  0  0  0  0
 44 80  1  0  0  0  0
 45 81  1  0  0  0  0
 46 47  1  0  0  0  0
 46 45  2  0  0  0  0
 47 82  1  0  0  0  0
 48 83  1  0  0  0  0
 48 47  2  0  0  0  0
 49 84  1  0  0  0  0
 50 85  1  0  0  0  0
 50 49  2  0  0  0  0
 51 34  2  0  0  0  0
 52 53  1  0  0  0  0
 52 51  1  0  0  0  0
 53 31  1  0  0  0  0
 54 87  1  0  0  0  0
 54 53  2  0  0  0  0
 55 54  1  0  0  0  0
 56 55  2  0  0  0  0
 56 57  1  0  0  0  0
 57 52  2  0  0  0  0
 65 17  1  0  0  0  0
 66 18  1  0  0  0  0
 67 20  1  0  0  0  0
 68 21  1  0  0  0  0
 69 22  1  0  0  0  0
 71 26  1  0  0  0  0
 72 27  1  0  0  0  0
 75 36  1  0  0  0  0
 76 37  1  0  0  0  0
 77 40  1  0  0  0  0
 78 42  1  0  0  0  0
 79 43  1  0  0  0  0
 86 51  1  0  0  0  0
 88 55  1  0  0  0  0
 89 56  1  0  0  0  0
 90 57  1  0  0  0  0
M  END
$$$$
