O=P1(O)OC2=C(C3=CC=C(C)C=C3)C=C4C(C=CC=C4)=C2C5=C(O1)C(C6=CC=C(C)C=C6)=CC7=C5C=CC=C7
 OpenBabel09032010373D

 64 70  0  0  0  0  0  0  0  0999 V2000
    0.6481   -2.6516   -1.3897 O   0  0  0  0  0  0  0  0  0  0  0  0
    0.0260   -1.7391   -0.3794 P   0  0  0  0  0  0  0  0  0  0  0  0
   -0.8213   -2.5581    0.7165 O   0  0  0  0  0  0  0  0  0  0  0  0
   -1.0502   -0.7042   -0.9825 O   0  0  0  0  0  0  0  0  0  0  0  0
   -1.5451    0.2906   -0.1686 C   0  0  0  0  0  0  0  0  0  0  0  0
   -2.9044    0.1975    0.1809 C   0  0  0  0  0  0  0  0  0  0  0  0
   -3.7450   -0.9364   -0.2358 C   0  0  0  0  0  0  0  0  0  0  0  0
   -4.2463   -1.8398    0.7138 C   0  0  0  0  0  0  0  0  0  0  0  0
   -5.0305   -2.9297    0.3257 C   0  0  0  0  0  0  0  0  0  0  0  0
   -5.3232   -3.1463   -1.0244 C   0  0  0  0  0  0  0  0  0  0  0  0
   -6.1936   -4.2951   -1.4399 C   0  0  0  0  0  0  0  0  0  0  0  0
   -4.8413   -2.2418   -1.9760 C   0  0  0  0  0  0  0  0  0  0  0  0
   -4.0573   -1.1521   -1.5856 C   0  0  0  0  0  0  0  0  0  0  0  0
   -3.4452    1.2148    0.9679 C   0  0  0  0  0  0  0  0  0  0  0  0
   -2.6599    2.2742    1.4316 C   0  0  0  0  0  0  0  0  0  0  0  0
   -1.2831    2.3487    1.0865 C   0  0  0  0  0  0  0  0  0  0  0  0
   -0.5443    3.3970    1.6927 C   0  0  0  0  0  0  0  0  0  0  0  0
   -1.1348    4.3524    2.5246 C   0  0  0  0  0  0  0  0  0  0  0  0
   -2.4905    4.2830    2.7996 C   0  0  0  0  0  0  0  0  0  0  0  0
   -3.2456    3.2450    2.2619 C   0  0  0  0  0  0  0  0  0  0  0  0
   -0.6980    1.3599    0.2129 C   0  0  0  0  0  0  0  0  0  0  0  0
    0.6703    1.4106   -0.2645 C   0  0  0  0  0  0  0  0  0  0  0  0
    1.5328    0.3018   -0.0660 C   0  0  0  0  0  0  0  0  0  0  0  0
    1.0307   -0.8460    0.5089 O   0  0  0  0  0  0  0  0  0  0  0  0
    2.9077    0.3217   -0.3544 C   0  0  0  0  0  0  0  0  0  0  0  0
    3.7905   -0.8143   -0.0623 C   0  0  0  0  0  0  0  0  0  0  0  0
    4.5804   -0.8254    1.0963 C   0  0  0  0  0  0  0  0  0  0  0  0
    5.4282   -1.9013    1.3755 C   0  0  0  0  0  0  0  0  0  0  0  0
    5.4955   -2.9944    0.5057 C   0  0  0  0  0  0  0  0  0  0  0  0
    6.4245   -4.1370    0.7888 C   0  0  0  0  0  0  0  0  0  0  0  0
    4.7224   -2.9816   -0.6597 C   0  0  0  0  0  0  0  0  0  0  0  0
    3.8771   -1.9040   -0.9385 C   0  0  0  0  0  0  0  0  0  0  0  0
    3.4408    1.4777   -0.9265 C   0  0  0  0  0  0  0  0  0  0  0  0
    2.6344    2.5763   -1.2364 C   0  0  0  0  0  0  0  0  0  0  0  0
    1.2474    2.5522   -0.9305 C   0  0  0  0  0  0  0  0  0  0  0  0
    0.4911    3.6717   -1.3625 C   0  0  0  0  0  0  0  0  0  0  0  0
    1.0727    4.7731   -1.9964 C   0  0  0  0  0  0  0  0  0  0  0  0
    2.4365    4.7876   -2.2392 C   0  0  0  0  0  0  0  0  0  0  0  0
    3.2103    3.6923   -1.8668 C   0  0  0  0  0  0  0  0  0  0  0  0
   -1.3527   -3.2489    0.2804 H   0  0  0  0  0  0  0  0  0  0  0  0
   -4.0173   -1.7031    1.7695 H   0  0  0  0  0  0  0  0  0  0  0  0
   -5.4093   -3.6076    1.0873 H   0  0  0  0  0  0  0  0  0  0  0  0
   -6.0712   -5.1441   -0.7591 H   0  0  0  0  0  0  0  0  0  0  0  0
   -5.9278   -4.6433   -2.4436 H   0  0  0  0  0  0  0  0  0  0  0  0
   -7.2441   -3.9884   -1.4380 H   0  0  0  0  0  0  0  0  0  0  0  0
   -5.0716   -2.3776   -3.0306 H   0  0  0  0  0  0  0  0  0  0  0  0
   -3.6876   -0.4664   -2.3462 H   0  0  0  0  0  0  0  0  0  0  0  0
   -4.4989    1.1633    1.2407 H   0  0  0  0  0  0  0  0  0  0  0  0
    0.5295    3.4793    1.5340 H   0  0  0  0  0  0  0  0  0  0  0  0
   -0.5268    5.1418    2.9583 H   0  0  0  0  0  0  0  0  0  0  0  0
   -2.9578    5.0206    3.4461 H   0  0  0  0  0  0  0  0  0  0  0  0
   -4.3037    3.1913    2.5122 H   0  0  0  0  0  0  0  0  0  0  0  0
    4.5353    0.0082    1.7941 H   0  0  0  0  0  0  0  0  0  0  0  0
    6.0305   -1.8806    2.2806 H   0  0  0  0  0  0  0  0  0  0  0  0
    6.5490   -4.2814    1.8671 H   0  0  0  0  0  0  0  0  0  0  0  0
    6.0290   -5.0727    0.3798 H   0  0  0  0  0  0  0  0  0  0  0  0
    7.4045   -3.9418    0.3424 H   0  0  0  0  0  0  0  0  0  0  0  0
    4.7640   -3.8129   -1.3596 H   0  0  0  0  0  0  0  0  0  0  0  0
    3.2768   -1.9263   -1.8466 H   0  0  0  0  0  0  0  0  0  0  0  0
    4.5054    1.5030   -1.1583 H   0  0  0  0  0  0  0  0  0  0  0  0
   -0.5879    3.6964   -1.2203 H   0  0  0  0  0  0  0  0  0  0  0  0
    0.4521    5.6110   -2.3028 H   0  0  0  0  0  0  0  0  0  0  0  0
    2.8969    5.6389   -2.7328 H   0  0  0  0  0  0  0  0  0  0  0  0
    4.2760    3.7113   -2.0884 H   0  0  0  0  0  0  0  0  0  0  0  0
  1  2  2  0  0  0  0
  2 24  1  0  0  0  0
  2  3  1  0  0  0  0
  4  2  1  0  0  0  0
  4  5  1  0  0  0  0
  5  6  2  0  0  0  0
  5 21  1  0  0  0  0
  6 14  1  0  0  0  0
  7  6  1  0  0  0  0
  7  8  2  0  0  0  0
  8 41  1  0  0  0  0
  9  8  1  0  0  0  0
  9 42  1  0  0  0  0
 10  9  2  0  0  0  0
 11 45  1  0  0  0  0
 11 10  1  0  0  0  0
 11 43  1  0  0  0  0
 12 13  2  0  0  0  0
 12 10  1  0  0  0  0
 13  7  1  0  0  0  0
 14 48  1  0  0  0  0
 14 15  2  0  0  0  0
 15 20  1  0  0  0  0
 16 15  1  0  0  0  0
 16 17  1  0  0  0  0
 17 18  2  0  0  0  0
 18 19  1  0  0  0  0
 18 50  1  0  0  0  0
 19 51  1  0  0  0  0
 20 52  1  0  0  0  0
 20 19  2  0  0  0  0
 21 16  2  0  0  0  0
 22 23  2  0  0  0  0
 22 21  1  0  0  0  0
 23 24  1  0  0  0  0
 25 23  1  0  0  0  0
 25 26  1  0  0  0  0
 26 27  2  0  0  0  0
 27 28  1  0  0  0  0
 27 53  1  0  0  0  0
 28 54  1  0  0  0  0
 29 30  1  0  0  0  0
 29 28  2  0  0  0  0
 30 55  1  0  0  0  0
 31 29  1  0  0  0  0
 32 31  2  0  0  0  0
 32 26  1  0  0  0  0
 33 25  2  0  0  0  0
 34 35  1  0  0  0  0
 34 33  1  0  0  0  0
 35 22  1  0  0  0  0
 36 61  1  0  0  0  0
 36 35  2  0  0  0  0
 37 36  1  0  0  0  0
 38 37  2  0  0  0  0
 38 39  1  0  0  0  0
 39 34  2  0  0  0  0
 40  3  1  0  0  0  0
 44 11  1  0  0  0  0
 46 12  1  0  0  0  0
 47 13  1  0  0  0  0
 49 17  1  0  0  0  0
 56 30  1  0  0  0  0
 57 30  1  0  0  0  0
 58 31  1  0  0  0  0
 59 32  1  0  0  0  0
 60 33  1  0  0  0  0
 62 37  1  0  0  0  0
 63 38  1  0  0  0  0
 64 39  1  0  0  0  0
M  END
$$$$
