O=P1(O)OC2=C(CC3=CC=C(OC)C=C3)C=C4C(CCCC4)=C2C5=C(O1)C(CC6=CC=C(OC)C=C6)=CC7=C5CCCC7
 OpenBabel09032010373D

 80 86  0  0  0  0  0  0  0  0999 V2000
    0.5908    1.2935   -3.5312 O   0  0  0  0  0  0  0  0  0  0  0  0
    1.0573    1.0651   -2.1259 P   0  0  0  0  0  0  0  0  0  0  0  0
    2.0392    2.2248   -1.6053 O   0  0  0  0  0  0  0  0  0  0  0  0
    1.9261   -0.2814   -1.9248 O   0  0  0  0  0  0  0  0  0  0  0  0
    2.0641   -0.8640   -0.6870 C   0  0  0  0  0  0  0  0  0  0  0  0
    3.3773   -1.0786   -0.2355 C   0  0  0  0  0  0  0  0  0  0  0  0
    4.5903   -0.7250   -1.0712 C   0  0  0  0  0  0  0  0  0  0  0  0
    4.9997    0.7284   -1.0004 C   0  0  0  0  0  0  0  0  0  0  0  0
    5.3480    1.3283    0.2164 C   0  0  0  0  0  0  0  0  0  0  0  0
    5.7339    2.6703    0.2597 C   0  0  0  0  0  0  0  0  0  0  0  0
    5.7884    3.4359   -0.9060 C   0  0  0  0  0  0  0  0  0  0  0  0
    6.1788    4.7331   -0.7207 O   0  0  0  0  0  0  0  0  0  0  0  0
    6.2450    5.5542   -1.8804 C   0  0  0  0  0  0  0  0  0  0  0  0
    5.4554    2.8432   -2.1224 C   0  0  0  0  0  0  0  0  0  0  0  0
    5.0692    1.4983   -2.1693 C   0  0  0  0  0  0  0  0  0  0  0  0
    3.5646   -1.6430    1.0289 C   0  0  0  0  0  0  0  0  0  0  0  0
    2.4775   -1.9683    1.8463 C   0  0  0  0  0  0  0  0  0  0  0  0
    1.1614   -1.7708    1.3701 C   0  0  0  0  0  0  0  0  0  0  0  0
   -0.0117   -2.0131    2.3156 C   0  0  0  0  0  0  0  0  0  0  0  0
    0.3787   -2.0543    3.7918 C   0  0  0  0  0  0  0  0  0  0  0  0
    1.5548   -2.9962    3.9848 C   0  0  0  0  0  0  0  0  0  0  0  0
    2.7738   -2.4596    3.2452 C   0  0  0  0  0  0  0  0  0  0  0  0
    0.9259   -1.3009    0.0380 C   0  0  0  0  0  0  0  0  0  0  0  0
   -0.3918   -1.2579   -0.5356 C   0  0  0  0  0  0  0  0  0  0  0  0
   -0.9247   -0.0297   -0.9805 C   0  0  0  0  0  0  0  0  0  0  0  0
   -0.1000    1.0662   -1.0015 O   0  0  0  0  0  0  0  0  0  0  0  0
   -2.2576    0.1393   -1.3807 C   0  0  0  0  0  0  0  0  0  0  0  0
   -2.8209    1.4876   -1.7792 C   0  0  0  0  0  0  0  0  0  0  0  0
   -3.9134    1.9880   -0.8568 C   0  0  0  0  0  0  0  0  0  0  0  0
   -5.2321    2.1197   -1.3127 C   0  0  0  0  0  0  0  0  0  0  0  0
   -6.2442    2.5747   -0.4581 C   0  0  0  0  0  0  0  0  0  0  0  0
   -5.9508    2.9053    0.8645 C   0  0  0  0  0  0  0  0  0  0  0  0
   -6.8418    3.3567    1.7995 O   0  0  0  0  0  0  0  0  0  0  0  0
   -8.1971    3.4876    1.3885 C   0  0  0  0  0  0  0  0  0  0  0  0
   -4.6370    2.7804    1.3210 C   0  0  0  0  0  0  0  0  0  0  0  0
   -3.6247    2.3279    0.4707 C   0  0  0  0  0  0  0  0  0  0  0  0
   -3.0811   -0.9883   -1.4118 C   0  0  0  0  0  0  0  0  0  0  0  0
   -2.5826   -2.2583   -1.0983 C   0  0  0  0  0  0  0  0  0  0  0  0
   -1.2402   -2.4024   -0.6714 C   0  0  0  0  0  0  0  0  0  0  0  0
   -0.6603   -3.8086   -0.5745 C   0  0  0  0  0  0  0  0  0  0  0  0
   -1.7055   -4.8858   -0.2981 C   0  0  0  0  0  0  0  0  0  0  0  0
   -2.8383   -4.7793   -1.3053 C   0  0  0  0  0  0  0  0  0  0  0  0
   -3.5342   -3.4305   -1.1750 C   0  0  0  0  0  0  0  0  0  0  0  0
    2.4505    2.0265   -0.7447 H   0  0  0  0  0  0  0  0  0  0  0  0
    4.4008   -1.0226   -2.1110 H   0  0  0  0  0  0  0  0  0  0  0  0
    5.4489   -1.3366   -0.7621 H   0  0  0  0  0  0  0  0  0  0  0  0
    5.3280    0.7600    1.1430 H   0  0  0  0  0  0  0  0  0  0  0  0
    5.9994    3.1237    1.2118 H   0  0  0  0  0  0  0  0  0  0  0  0
    6.5677    6.5514   -1.5656 H   0  0  0  0  0  0  0  0  0  0  0  0
    6.9857    5.1738   -2.5916 H   0  0  0  0  0  0  0  0  0  0  0  0
    5.2606    5.6554   -2.3492 H   0  0  0  0  0  0  0  0  0  0  0  0
    5.4775    3.3970   -3.0553 H   0  0  0  0  0  0  0  0  0  0  0  0
    4.8072    1.0629   -3.1323 H   0  0  0  0  0  0  0  0  0  0  0  0
    4.5758   -1.8063    1.4005 H   0  0  0  0  0  0  0  0  0  0  0  0
   -0.4885   -2.9659    2.0681 H   0  0  0  0  0  0  0  0  0  0  0  0
   -0.7582   -1.2195    2.1927 H   0  0  0  0  0  0  0  0  0  0  0  0
    0.6424   -1.0485    4.1421 H   0  0  0  0  0  0  0  0  0  0  0  0
   -0.4768   -2.3900    4.3887 H   0  0  0  0  0  0  0  0  0  0  0  0
    1.2962   -3.9940    3.6084 H   0  0  0  0  0  0  0  0  0  0  0  0
    1.7868   -3.1050    5.0501 H   0  0  0  0  0  0  0  0  0  0  0  0
    3.1936   -1.6197    3.8137 H   0  0  0  0  0  0  0  0  0  0  0  0
    3.5371   -3.2462    3.2070 H   0  0  0  0  0  0  0  0  0  0  0  0
   -3.1990    1.4061   -2.8070 H   0  0  0  0  0  0  0  0  0  0  0  0
   -2.0399    2.2559   -1.8250 H   0  0  0  0  0  0  0  0  0  0  0  0
   -5.4846    1.8674   -2.3404 H   0  0  0  0  0  0  0  0  0  0  0  0
   -7.2485    2.6587   -0.8589 H   0  0  0  0  0  0  0  0  0  0  0  0
   -8.7732    3.8482    2.2461 H   0  0  0  0  0  0  0  0  0  0  0  0
   -8.2960    4.2261    0.5861 H   0  0  0  0  0  0  0  0  0  0  0  0
   -8.6141    2.5202    1.0898 H   0  0  0  0  0  0  0  0  0  0  0  0
   -4.3980    3.0371    2.3500 H   0  0  0  0  0  0  0  0  0  0  0  0
   -2.6099    2.2380    0.8524 H   0  0  0  0  0  0  0  0  0  0  0  0
   -4.1230   -0.8816   -1.7116 H   0  0  0  0  0  0  0  0  0  0  0  0
    0.1157   -3.8941    0.1874 H   0  0  0  0  0  0  0  0  0  0  0  0
   -0.1733   -4.0224   -1.5355 H   0  0  0  0  0  0  0  0  0  0  0  0
   -2.0984   -4.7786    0.7206 H   0  0  0  0  0  0  0  0  0  0  0  0
   -1.2393   -5.8753   -0.3638 H   0  0  0  0  0  0  0  0  0  0  0  0
   -3.5629   -5.5861   -1.1489 H   0  0  0  0  0  0  0  0  0  0  0  0
   -2.4403   -4.8974   -2.3211 H   0  0  0  0  0  0  0  0  0  0  0  0
   -4.2140   -3.3068   -2.0268 H   0  0  0  0  0  0  0  0  0  0  0  0
   -4.1461   -3.4246   -0.2640 H   0  0  0  0  0  0  0  0  0  0  0  0
  1  2  2  0  0  0  0
  2  4  1  0  0  0  0
  2  3  1  0  0  0  0
  2 26  1  0  0  0  0
  3 44  1  0  0  0  0
  4  5  1  0  0  0  0
  5  6  2  0  0  0  0
  5 23  1  0  0  0  0
  6 16  1  0  0  0  0
  7  8  1  0  0  0  0
  7 46  1  0  0  0  0
  7  6  1  0  0  0  0
  8  9  2  0  0  0  0
  9 10  1  0  0  0  0
  9 47  1  0  0  0  0
 10 48  1  0  0  0  0
 11 12  1  0  0  0  0
 11 10  2  0  0  0  0
 13 49  1  0  0  0  0
 13 12  1  0  0  0  0
 14 11  1  0  0  0  0
 15 14  2  0  0  0  0
 15  8  1  0  0  0  0
 16 54  1  0  0  0  0
 16 17  2  0  0  0  0
 17 22  1  0  0  0  0
 18 17  1  0  0  0  0
 18 19  1  0  0  0  0
 19 20  1  0  0  0  0
 20 21  1  0  0  0  0
 20 57  1  0  0  0  0
 20 58  1  0  0  0  0
 21 60  1  0  0  0  0
 22 61  1  0  0  0  0
 22 21  1  0  0  0  0
 23 18  2  0  0  0  0
 24 23  1  0  0  0  0
 25 24  2  0  0  0  0
 26 25  1  0  0  0  0
 27 25  1  0  0  0  0
 28 27  1  0  0  0  0
 28 29  1  0  0  0  0
 29 36  1  0  0  0  0
 30 29  2  0  0  0  0
 30 31  1  0  0  0  0
 31 32  2  0  0  0  0
 32 35  1  0  0  0  0
 32 33  1  0  0  0  0
 34 33  1  0  0  0  0
 34 67  1  0  0  0  0
 35 70  1  0  0  0  0
 36 71  1  0  0  0  0
 36 35  2  0  0  0  0
 37 27  2  0  0  0  0
 37 38  1  0  0  0  0
 38 39  2  0  0  0  0
 39 40  1  0  0  0  0
 39 24  1  0  0  0  0
 40 41  1  0  0  0  0
 40 73  1  0  0  0  0
 41 75  1  0  0  0  0
 42 43  1  0  0  0  0
 42 77  1  0  0  0  0
 42 41  1  0  0  0  0
 43 38  1  0  0  0  0
 43 80  1  0  0  0  0
 45  7  1  0  0  0  0
 50 13  1  0  0  0  0
 51 13  1  0  0  0  0
 52 14  1  0  0  0  0
 53 15  1  0  0  0  0
 55 19  1  0  0  0  0
 56 19  1  0  0  0  0
 59 21  1  0  0  0  0
 62 22  1  0  0  0  0
 63 28  1  0  0  0  0
 64 28  1  0  0  0  0
 65 30  1  0  0  0  0
 66 31  1  0  0  0  0
 68 34  1  0  0  0  0
 69 34  1  0  0  0  0
 72 37  1  0  0  0  0
 74 40  1  0  0  0  0
 76 41  1  0  0  0  0
 78 42  1  0  0  0  0
 79 43  1  0  0  0  0
M  END
$$$$
