O=P1(O)OC2=C(C3=C(OC)C=CC=C3OC)C=C4C(C=CC=C4)=C2C5=C(O1)[C@@]([C@@]6=C(OC)C=CC=C6OC)=CC7=C5C=CC=C7
 OpenBabel09032010373D

 74 80  0  0  0  0  0  0  0  0999 V2000
    1.1813    2.7228    0.7148 O   0  0  0  0  0  0  0  0  0  0  0  0
    0.3945    1.7838   -0.1464 P   0  0  0  0  0  0  0  0  0  0  0  0
   -0.2640    2.5153   -1.4193 O   0  0  0  0  0  0  0  0  0  0  0  0
    1.2075    0.5734   -0.8254 O   0  0  0  0  0  0  0  0  0  0  0  0
    1.6073   -0.4445    0.0097 C   0  0  0  0  0  0  0  0  0  0  0  0
    2.9845   -0.5603    0.2661 C   0  0  0  0  0  0  0  0  0  0  0  0
    3.9821    0.3432   -0.3473 C   0  0  0  0  0  0  0  0  0  0  0  0
    4.6812    1.2913    0.4297 C   0  0  0  0  0  0  0  0  0  0  0  0
    4.4351    1.3236    1.7820 O   0  0  0  0  0  0  0  0  0  0  0  0
    4.2215    2.6397    2.2895 C   0  0  0  0  0  0  0  0  0  0  0  0
    5.6428    2.1292   -0.1496 C   0  0  0  0  0  0  0  0  0  0  0  0
    5.9062    2.0559   -1.5155 C   0  0  0  0  0  0  0  0  0  0  0  0
    5.2141    1.1432   -2.3067 C   0  0  0  0  0  0  0  0  0  0  0  0
    4.2516    0.3045   -1.7320 C   0  0  0  0  0  0  0  0  0  0  0  0
    3.6075   -0.6344   -2.5039 O   0  0  0  0  0  0  0  0  0  0  0  0
    2.8962   -0.0440   -3.5917 C   0  0  0  0  0  0  0  0  0  0  0  0
    3.3990   -1.5725    1.1342 C   0  0  0  0  0  0  0  0  0  0  0  0
    2.4813   -2.4238    1.7569 C   0  0  0  0  0  0  0  0  0  0  0  0
    1.0945   -2.3050    1.4743 C   0  0  0  0  0  0  0  0  0  0  0  0
    0.2280   -3.1496    2.2136 C   0  0  0  0  0  0  0  0  0  0  0  0
    0.7005   -4.0959    3.1272 C   0  0  0  0  0  0  0  0  0  0  0  0
    2.0627   -4.2203    3.3488 C   0  0  0  0  0  0  0  0  0  0  0  0
    2.9461   -3.3841    2.6718 C   0  0  0  0  0  0  0  0  0  0  0  0
    0.6295   -1.3320    0.5170 C   0  0  0  0  0  0  0  0  0  0  0  0
   -0.7339   -1.2528    0.0309 C   0  0  0  0  0  0  0  0  0  0  0  0
   -1.4558   -0.0296    0.0695 C   0  0  0  0  0  0  0  0  0  0  0  0
   -0.8724    1.1097    0.5848 O   0  0  0  0  0  0  0  0  0  0  0  0
   -2.8049    0.0846   -0.3137 C   0  0  0  0  0  0  0  0  0  0  0  0
   -3.5357    1.3678   -0.2624 C   0  0  0  0  0  0  0  0  0  0  0  0
   -3.5135    2.2459   -1.3736 C   0  0  0  0  0  0  0  0  0  0  0  0
   -2.7555    1.8387   -2.4503 O   0  0  0  0  0  0  0  0  0  0  0  0
   -2.9075    2.5694   -3.6640 C   0  0  0  0  0  0  0  0  0  0  0  0
   -4.2025    3.4604   -1.3185 C   0  0  0  0  0  0  0  0  0  0  0  0
   -4.9281    3.8040   -0.1786 C   0  0  0  0  0  0  0  0  0  0  0  0
   -4.9663    2.9443    0.9183 C   0  0  0  0  0  0  0  0  0  0  0  0
   -4.2696    1.7329    0.8893 C   0  0  0  0  0  0  0  0  0  0  0  0
   -4.2795    0.8254    1.9207 O   0  0  0  0  0  0  0  0  0  0  0  0
   -4.5979    1.3280    3.2123 C   0  0  0  0  0  0  0  0  0  0  0  0
   -3.4633   -1.0567   -0.7738 C   0  0  0  0  0  0  0  0  0  0  0  0
   -2.8006   -2.2777   -0.8982 C   0  0  0  0  0  0  0  0  0  0  0  0
   -1.4329   -2.3866   -0.5308 C   0  0  0  0  0  0  0  0  0  0  0  0
   -0.8183   -3.6365   -0.8050 C   0  0  0  0  0  0  0  0  0  0  0  0
   -1.5197   -4.7268   -1.3288 C   0  0  0  0  0  0  0  0  0  0  0  0
   -2.8676   -4.6032   -1.6212 C   0  0  0  0  0  0  0  0  0  0  0  0
   -3.5009   -3.3818   -1.4150 C   0  0  0  0  0  0  0  0  0  0  0  0
   -0.9499    1.9580   -1.8374 H   0  0  0  0  0  0  0  0  0  0  0  0
    5.1775    3.0928    2.5699 H   0  0  0  0  0  0  0  0  0  0  0  0
    3.6890    3.2827    1.5806 H   0  0  0  0  0  0  0  0  0  0  0  0
    3.6111    2.5545    3.1935 H   0  0  0  0  0  0  0  0  0  0  0  0
    6.2064    2.8287    0.4596 H   0  0  0  0  0  0  0  0  0  0  0  0
    6.6605    2.7001   -1.9592 H   0  0  0  0  0  0  0  0  0  0  0  0
    5.4463    1.0727   -3.3649 H   0  0  0  0  0  0  0  0  0  0  0  0
    2.4138    0.8996   -3.3121 H   0  0  0  0  0  0  0  0  0  0  0  0
    3.5652    0.1081   -4.4444 H   0  0  0  0  0  0  0  0  0  0  0  0
    2.1138   -0.7448   -3.8982 H   0  0  0  0  0  0  0  0  0  0  0  0
    4.4625   -1.6701    1.3490 H   0  0  0  0  0  0  0  0  0  0  0  0
   -0.8513   -3.0701    2.0944 H   0  0  0  0  0  0  0  0  0  0  0  0
   -0.0024   -4.7259    3.6654 H   0  0  0  0  0  0  0  0  0  0  0  0
    2.4390   -4.9519    4.0582 H   0  0  0  0  0  0  0  0  0  0  0  0
    4.0112   -3.4779    2.8761 H   0  0  0  0  0  0  0  0  0  0  0  0
   -2.3430    2.0442   -4.4404 H   0  0  0  0  0  0  0  0  0  0  0  0
   -3.9556    2.6051   -3.9794 H   0  0  0  0  0  0  0  0  0  0  0  0
   -2.4853    3.5748   -3.5688 H   0  0  0  0  0  0  0  0  0  0  0  0
   -4.1858    4.1679   -2.1408 H   0  0  0  0  0  0  0  0  0  0  0  0
   -5.4652    4.7489   -0.1435 H   0  0  0  0  0  0  0  0  0  0  0  0
   -5.5547    3.2413    1.7798 H   0  0  0  0  0  0  0  0  0  0  0  0
   -4.0037    2.2149    3.4578 H   0  0  0  0  0  0  0  0  0  0  0  0
   -5.6695    1.5350    3.2948 H   0  0  0  0  0  0  0  0  0  0  0  0
   -4.3528    0.5506    3.9424 H   0  0  0  0  0  0  0  0  0  0  0  0
   -4.5101   -0.9740   -1.0630 H   0  0  0  0  0  0  0  0  0  0  0  0
    0.2454   -3.7807   -0.6224 H   0  0  0  0  0  0  0  0  0  0  0  0
   -1.0023   -5.6653   -1.5092 H   0  0  0  0  0  0  0  0  0  0  0  0
   -3.4211   -5.4452   -2.0271 H   0  0  0  0  0  0  0  0  0  0  0  0
   -4.5537   -3.2931   -1.6771 H   0  0  0  0  0  0  0  0  0  0  0  0
  2 27  1  0  0  0  0
  2  1  2  0  0  0  0
  3  2  1  0  0  0  0
  4  2  1  0  0  0  0
  4  5  1  0  0  0  0
  5  6  2  0  0  0  0
  5 24  1  0  0  0  0
  6 17  1  0  0  0  0
  7  6  1  0  0  0  0
  7  8  2  0  0  0  0
  8  9  1  0  0  0  0
  9 10  1  0  0  0  0
 10 47  1  0  0  0  0
 10 49  1  0  0  0  0
 11  8  1  0  0  0  0
 11 50  1  0  0  0  0
 12 11  2  0  0  0  0
 13 14  2  0  0  0  0
 13 12  1  0  0  0  0
 14  7  1  0  0  0  0
 15 14  1  0  0  0  0
 16 53  1  0  0  0  0
 16 15  1  0  0  0  0
 17 56  1  0  0  0  0
 17 18  2  0  0  0  0
 18 23  1  0  0  0  0
 19 18  1  0  0  0  0
 19 20  1  0  0  0  0
 20 21  2  0  0  0  0
 21 22  1  0  0  0  0
 21 58  1  0  0  0  0
 22 59  1  0  0  0  0
 23 60  1  0  0  0  0
 23 22  2  0  0  0  0
 24 19  2  0  0  0  0
 25 26  1  0  0  0  0
 25 24  1  0  0  0  0
 26 27  1  0  0  0  0
 28 29  1  0  0  0  0
 28 26  2  0  0  0  0
 29 36  2  0  0  0  0
 30 33  2  0  0  0  0
 30 29  1  0  0  0  0
 31 30  1  0  0  0  0
 32 63  1  0  0  0  0
 32 31  1  0  0  0  0
 33 34  1  0  0  0  0
 34 65  1  0  0  0  0
 34 35  2  0  0  0  0
 35 66  1  0  0  0  0
 36 35  1  0  0  0  0
 36 37  1  0  0  0  0
 37 38  1  0  0  0  0
 38 68  1  0  0  0  0
 38 67  1  0  0  0  0
 38 69  1  0  0  0  0
 39 28  1  0  0  0  0
 40 39  2  0  0  0  0
 40 41  1  0  0  0  0
 41 25  2  0  0  0  0
 42 71  1  0  0  0  0
 42 41  1  0  0  0  0
 43 42  2  0  0  0  0
 44 45  2  0  0  0  0
 44 43  1  0  0  0  0
 45 40  1  0  0  0  0
 46  3  1  0  0  0  0
 48 10  1  0  0  0  0
 51 12  1  0  0  0  0
 52 13  1  0  0  0  0
 54 16  1  0  0  0  0
 55 16  1  0  0  0  0
 57 20  1  0  0  0  0
 61 32  1  0  0  0  0
 62 32  1  0  0  0  0
 64 33  1  0  0  0  0
 70 39  1  0  0  0  0
 72 43  1  0  0  0  0
 73 44  1  0  0  0  0
 74 45  1  0  0  0  0
M  END
$$$$
