O=P1(O)OC2=C(C3=C(OC(F)(F)F)C=CC=C3)C=C4C(C=CC=C4)=C2C5=C(O1)C(C6=CC=CC=C6OC(F)(F)F)=CC7=C5C=CC=C7
 OpenBabel09032010383D

 66 72  0  0  0  0  0  0  0  0999 V2000
   -0.8424    0.6060    2.9906 O   0  0  0  0  0  0  0  0  0  0  0  0
    0.0028   -0.0282    1.9309 P   0  0  0  0  0  0  0  0  0  0  0  0
    1.1051   -1.0341    2.5266 O   0  0  0  0  0  0  0  0  0  0  0  0
    0.8718    1.0145    1.0661 O   0  0  0  0  0  0  0  0  0  0  0  0
    1.4353    0.6516   -0.1375 C   0  0  0  0  0  0  0  0  0  0  0  0
    2.8424    0.7331   -0.2208 C   0  0  0  0  0  0  0  0  0  0  0  0
    3.6964    1.1300    0.9239 C   0  0  0  0  0  0  0  0  0  0  0  0
    4.7747    0.3429    1.3813 C   0  0  0  0  0  0  0  0  0  0  0  0
    5.1281   -0.8164    0.7371 O   0  0  0  0  0  0  0  0  0  0  0  0
    4.5396   -1.9526    1.3562 C   0  0  0  0  0  0  0  0  0  0  0  0
    3.1851   -1.8866    1.3124 F   0  0  0  0  0  0  0  0  0  0  0  0
    4.9392   -2.0834    2.6375 F   0  0  0  0  0  0  0  0  0  0  0  0
    4.9204   -3.0582    0.6795 F   0  0  0  0  0  0  0  0  0  0  0  0
    5.5895    0.7659    2.4381 C   0  0  0  0  0  0  0  0  0  0  0  0
    5.3197    1.9664    3.0886 C   0  0  0  0  0  0  0  0  0  0  0  0
    4.2554    2.7560    2.6665 C   0  0  0  0  0  0  0  0  0  0  0  0
    3.4610    2.3464    1.5917 C   0  0  0  0  0  0  0  0  0  0  0  0
    3.4320    0.4295   -1.4503 C   0  0  0  0  0  0  0  0  0  0  0  0
    2.6781    0.0029   -2.5456 C   0  0  0  0  0  0  0  0  0  0  0  0
    1.2653   -0.0819   -2.4480 C   0  0  0  0  0  0  0  0  0  0  0  0
    0.5949   -0.6192   -3.5779 C   0  0  0  0  0  0  0  0  0  0  0  0
    1.2640   -0.9827   -4.7501 C   0  0  0  0  0  0  0  0  0  0  0  0
    2.6390   -0.8390   -4.8311 C   0  0  0  0  0  0  0  0  0  0  0  0
    3.3414   -0.3552   -3.7320 C   0  0  0  0  0  0  0  0  0  0  0  0
    0.5953    0.3197   -1.2358 C   0  0  0  0  0  0  0  0  0  0  0  0
   -0.8486    0.3991   -1.1236 C   0  0  0  0  0  0  0  0  0  0  0  0
   -1.5201   -0.2971   -0.0900 C   0  0  0  0  0  0  0  0  0  0  0  0
   -0.7757   -0.9527    0.8644 O   0  0  0  0  0  0  0  0  0  0  0  0
   -2.9180   -0.4108   -0.0051 C   0  0  0  0  0  0  0  0  0  0  0  0
   -3.5848   -1.2104    1.0370 C   0  0  0  0  0  0  0  0  0  0  0  0
   -3.8344   -2.5737    0.7968 C   0  0  0  0  0  0  0  0  0  0  0  0
   -4.4793   -3.3615    1.7481 C   0  0  0  0  0  0  0  0  0  0  0  0
   -4.8875   -2.7951    2.9506 C   0  0  0  0  0  0  0  0  0  0  0  0
   -4.6507   -1.4424    3.2080 C   0  0  0  0  0  0  0  0  0  0  0  0
   -3.9957   -0.6432    2.2637 C   0  0  0  0  0  0  0  0  0  0  0  0
   -3.7230    0.6897    2.4195 O   0  0  0  0  0  0  0  0  0  0  0  0
   -3.9011    1.2675    3.7001 C   0  0  0  0  0  0  0  0  0  0  0  0
   -3.4199    2.5308    3.6877 F   0  0  0  0  0  0  0  0  0  0  0  0
   -5.2212    1.3388    3.9957 F   0  0  0  0  0  0  0  0  0  0  0  0
   -3.2756    0.5734    4.6736 F   0  0  0  0  0  0  0  0  0  0  0  0
   -3.6907    0.2553   -0.9577 C   0  0  0  0  0  0  0  0  0  0  0  0
   -3.1015    1.0400   -1.9515 C   0  0  0  0  0  0  0  0  0  0  0  0
   -1.6867    1.1383   -2.0375 C   0  0  0  0  0  0  0  0  0  0  0  0
   -1.1808    2.0266   -3.0210 C   0  0  0  0  0  0  0  0  0  0  0  0
   -2.0105    2.7228   -3.9046 C   0  0  0  0  0  0  0  0  0  0  0  0
   -3.3852    2.5699   -3.8251 C   0  0  0  0  0  0  0  0  0  0  0  0
   -3.9264    1.7385   -2.8494 C   0  0  0  0  0  0  0  0  0  0  0  0
    1.6678   -1.4346    1.8370 H   0  0  0  0  0  0  0  0  0  0  0  0
    6.4362    0.1627    2.7568 H   0  0  0  0  0  0  0  0  0  0  0  0
    5.9435    2.2906    3.9177 H   0  0  0  0  0  0  0  0  0  0  0  0
    4.0408    3.6974    3.1666 H   0  0  0  0  0  0  0  0  0  0  0  0
    2.6496    2.9989    1.2712 H   0  0  0  0  0  0  0  0  0  0  0  0
    4.5150    0.5095   -1.5486 H   0  0  0  0  0  0  0  0  0  0  0  0
   -0.4822   -0.7768   -3.5587 H   0  0  0  0  0  0  0  0  0  0  0  0
    0.7046   -1.3806   -5.5930 H   0  0  0  0  0  0  0  0  0  0  0  0
    3.1675   -1.1176   -5.7386 H   0  0  0  0  0  0  0  0  0  0  0  0
    4.4245   -0.2728   -3.8062 H   0  0  0  0  0  0  0  0  0  0  0  0
   -3.5225   -3.0263   -0.1424 H   0  0  0  0  0  0  0  0  0  0  0  0
   -4.6628   -4.4139    1.5487 H   0  0  0  0  0  0  0  0  0  0  0  0
   -5.3931   -3.4062    3.6945 H   0  0  0  0  0  0  0  0  0  0  0  0
   -4.9953   -1.0475    4.1595 H   0  0  0  0  0  0  0  0  0  0  0  0
   -4.7762    0.1801   -0.8972 H   0  0  0  0  0  0  0  0  0  0  0  0
   -0.1102    2.2044   -3.1063 H   0  0  0  0  0  0  0  0  0  0  0  0
   -1.5765    3.3882   -4.6464 H   0  0  0  0  0  0  0  0  0  0  0  0
   -4.0377    3.1090   -4.5064 H   0  0  0  0  0  0  0  0  0  0  0  0
   -5.0097    1.6512   -2.7856 H   0  0  0  0  0  0  0  0  0  0  0  0
  2  3  1  0  0  0  0
  2  1  2  0  0  0  0
  4  2  1  0  0  0  0
  5  4  1  0  0  0  0
  6  5  1  0  0  0  0
  6  7  1  0  0  0  0
  7  8  2  0  0  0  0
  7 17  1  0  0  0  0
  8 14  1  0  0  0  0
  9 10  1  0  0  0  0
  9  8  1  0  0  0  0
 10 12  1  0  0  0  0
 11 10  1  0  0  0  0
 13 10  1  0  0  0  0
 14 49  1  0  0  0  0
 14 15  2  0  0  0  0
 15 50  1  0  0  0  0
 16 15  1  0  0  0  0
 16 51  1  0  0  0  0
 17 16  2  0  0  0  0
 18  6  2  0  0  0  0
 19 20  1  0  0  0  0
 19 18  1  0  0  0  0
 20 25  1  0  0  0  0
 21 54  1  0  0  0  0
 21 20  2  0  0  0  0
 22 21  1  0  0  0  0
 23 22  2  0  0  0  0
 23 24  1  0  0  0  0
 24 19  2  0  0  0  0
 25 26  1  0  0  0  0
 25  5  2  0  0  0  0
 26 27  2  0  0  0  0
 27 29  1  0  0  0  0
 27 28  1  0  0  0  0
 28  2  1  0  0  0  0
 29 30  1  0  0  0  0
 30 35  1  0  0  0  0
 31 30  2  0  0  0  0
 31 32  1  0  0  0  0
 32 33  2  0  0  0  0
 33 34  1  0  0  0  0
 33 60  1  0  0  0  0
 34 61  1  0  0  0  0
 35 36  1  0  0  0  0
 35 34  2  0  0  0  0
 36 37  1  0  0  0  0
 37 39  1  0  0  0  0
 37 40  1  0  0  0  0
 38 37  1  0  0  0  0
 41 62  1  0  0  0  0
 41 29  2  0  0  0  0
 42 41  1  0  0  0  0
 43 42  1  0  0  0  0
 43 26  1  0  0  0  0
 44 43  2  0  0  0  0
 45 46  2  0  0  0  0
 45 44  1  0  0  0  0
 46 47  1  0  0  0  0
 47 66  1  0  0  0  0
 47 42  2  0  0  0  0
 48  3  1  0  0  0  0
 52 17  1  0  0  0  0
 53 18  1  0  0  0  0
 55 22  1  0  0  0  0
 56 23  1  0  0  0  0
 57 24  1  0  0  0  0
 58 31  1  0  0  0  0
 59 32  1  0  0  0  0
 63 44  1  0  0  0  0
 64 45  1  0  0  0  0
 65 46  1  0  0  0  0
M  END
$$$$
