O=P1(O)OC2=C(C3=CC=C(C4CCCCC4)C=C3)C=C5C(CCCC5)=C2C6=C(O1)C(C7=CC=C(C8CCCCC8)C=C7)=CC9=C6CCCC9
 OpenBabel09032010373D

 98106  0  0  0  0  0  0  0  0999 V2000
   -0.1850    1.7999   -1.3135 O   0  0  0  0  0  0  0  0  0  0  0  0
    0.1343    0.7851   -0.2601 P   0  0  0  0  0  0  0  0  0  0  0  0
    0.6831    1.4829    1.0828 O   0  0  0  0  0  0  0  0  0  0  0  0
   -1.0836   -0.1328    0.2618 O   0  0  0  0  0  0  0  0  0  0  0  0
   -1.4340   -1.2179   -0.5146 C   0  0  0  0  0  0  0  0  0  0  0  0
   -2.6741   -1.1524   -1.1827 C   0  0  0  0  0  0  0  0  0  0  0  0
   -3.5808   -0.0046   -1.0542 C   0  0  0  0  0  0  0  0  0  0  0  0
   -4.6691   -0.0483   -0.1738 C   0  0  0  0  0  0  0  0  0  0  0  0
   -5.5459    1.0372   -0.0538 C   0  0  0  0  0  0  0  0  0  0  0  0
   -5.3610    2.1994   -0.8103 C   0  0  0  0  0  0  0  0  0  0  0  0
   -6.2766    3.4134   -0.7161 C   0  0  0  0  0  0  0  0  0  0  0  0
   -6.2192    4.1220    0.6497 C   0  0  0  0  0  0  0  0  0  0  0  0
   -7.1805    3.5710    1.6998 C   0  0  0  0  0  0  0  0  0  0  0  0
   -8.6007    3.4485    1.1630 C   0  0  0  0  0  0  0  0  0  0  0  0
   -8.6576    2.6089   -0.1067 C   0  0  0  0  0  0  0  0  0  0  0  0
   -7.7173    3.1395   -1.1861 C   0  0  0  0  0  0  0  0  0  0  0  0
   -4.2689    2.2386   -1.6931 C   0  0  0  0  0  0  0  0  0  0  0  0
   -3.3954    1.1529   -1.8160 C   0  0  0  0  0  0  0  0  0  0  0  0
   -3.0418   -2.2275   -1.9927 C   0  0  0  0  0  0  0  0  0  0  0  0
   -2.1991   -3.3299   -2.1359 C   0  0  0  0  0  0  0  0  0  0  0  0
   -0.9690   -3.3916   -1.4346 C   0  0  0  0  0  0  0  0  0  0  0  0
   -0.0513   -4.5315   -1.8437 C   0  0  0  0  0  0  0  0  0  0  0  0
   -0.7778   -5.8760   -1.9579 C   0  0  0  0  0  0  0  0  0  0  0  0
   -2.2083   -5.7923   -2.4959 C   0  0  0  0  0  0  0  0  0  0  0  0
   -2.5536   -4.4364   -3.0988 C   0  0  0  0  0  0  0  0  0  0  0  0
   -0.5642   -2.3420   -0.5557 C   0  0  0  0  0  0  0  0  0  0  0  0
    0.6417   -2.3699    0.2449 C   0  0  0  0  0  0  0  0  0  0  0  0
    1.5738   -1.3018    0.1839 C   0  0  0  0  0  0  0  0  0  0  0  0
    1.3130   -0.2396   -0.6544 O   0  0  0  0  0  0  0  0  0  0  0  0
    2.7892   -1.2543    0.9023 C   0  0  0  0  0  0  0  0  0  0  0  0
    3.7173   -0.1140    0.7996 C   0  0  0  0  0  0  0  0  0  0  0  0
    4.0077    0.6788    1.9199 C   0  0  0  0  0  0  0  0  0  0  0  0
    4.8689    1.7768    1.8237 C   0  0  0  0  0  0  0  0  0  0  0  0
    5.4665    2.1133    0.6021 C   0  0  0  0  0  0  0  0  0  0  0  0
    6.3973    3.3107    0.5200 C   0  0  0  0  0  0  0  0  0  0  0  0
    7.8260    2.8997    0.1233 C   0  0  0  0  0  0  0  0  0  0  0  0
    8.7556    4.1100    0.0520 C   0  0  0  0  0  0  0  0  0  0  0  0
    8.2083    5.1862   -0.8812 C   0  0  0  0  0  0  0  0  0  0  0  0
    6.7904    5.5982   -0.4963 C   0  0  0  0  0  0  0  0  0  0  0  0
    5.8525    4.3941   -0.4272 C   0  0  0  0  0  0  0  0  0  0  0  0
    5.1823    1.3214   -0.5183 C   0  0  0  0  0  0  0  0  0  0  0  0
    4.3219    0.2233   -0.4192 C   0  0  0  0  0  0  0  0  0  0  0  0
    3.0816   -2.3186    1.7557 C   0  0  0  0  0  0  0  0  0  0  0  0
    2.1902   -3.3833    1.8961 C   0  0  0  0  0  0  0  0  0  0  0  0
    0.9756   -3.4101    1.1640 C   0  0  0  0  0  0  0  0  0  0  0  0
   -0.0029   -4.4930    1.5869 C   0  0  0  0  0  0  0  0  0  0  0  0
    0.6595   -5.8658    1.7435 C   0  0  0  0  0  0  0  0  0  0  0  0
    2.0752   -5.8341    2.3248 C   0  0  0  0  0  0  0  0  0  0  0  0
    2.4689   -4.4780    2.8975 C   0  0  0  0  0  0  0  0  0  0  0  0
    1.3368    2.1699    0.8586 H   0  0  0  0  0  0  0  0  0  0  0  0
   -4.8391   -0.9342    0.4349 H   0  0  0  0  0  0  0  0  0  0  0  0
   -6.3675    0.9473    0.6478 H   0  0  0  0  0  0  0  0  0  0  0  0
   -5.8741    4.1420   -1.4358 H   0  0  0  0  0  0  0  0  0  0  0  0
   -6.4804    5.1773    0.4901 H   0  0  0  0  0  0  0  0  0  0  0  0
   -5.1970    4.1189    1.0477 H   0  0  0  0  0  0  0  0  0  0  0  0
   -7.1800    4.2360    2.5717 H   0  0  0  0  0  0  0  0  0  0  0  0
   -6.8336    2.5978    2.0608 H   0  0  0  0  0  0  0  0  0  0  0  0
   -8.9995    4.4494    0.9560 H   0  0  0  0  0  0  0  0  0  0  0  0
   -9.2461    3.0024    1.9282 H   0  0  0  0  0  0  0  0  0  0  0  0
   -9.6838    2.6078   -0.4931 H   0  0  0  0  0  0  0  0  0  0  0  0
   -8.4211    1.5661    0.1260 H   0  0  0  0  0  0  0  0  0  0  0  0
   -8.1373    4.0893   -1.5452 H   0  0  0  0  0  0  0  0  0  0  0  0
   -7.7236    2.4599   -2.0472 H   0  0  0  0  0  0  0  0  0  0  0  0
   -4.0771    3.1228   -2.2977 H   0  0  0  0  0  0  0  0  0  0  0  0
   -2.5587    1.2256   -2.5087 H   0  0  0  0  0  0  0  0  0  0  0  0
   -3.9836   -2.1891   -2.5379 H   0  0  0  0  0  0  0  0  0  0  0  0
    0.8065   -4.6524   -1.1794 H   0  0  0  0  0  0  0  0  0  0  0  0
    0.3714   -4.2680   -2.8230 H   0  0  0  0  0  0  0  0  0  0  0  0
   -0.8179   -6.3567   -0.9736 H   0  0  0  0  0  0  0  0  0  0  0  0
   -0.1820   -6.5455   -2.5904 H   0  0  0  0  0  0  0  0  0  0  0  0
   -2.3771   -6.5854   -3.2336 H   0  0  0  0  0  0  0  0  0  0  0  0
   -2.9004   -5.9967   -1.6675 H   0  0  0  0  0  0  0  0  0  0  0  0
   -3.6236   -4.4153   -3.3364 H   0  0  0  0  0  0  0  0  0  0  0  0
   -2.0069   -4.2808   -4.0367 H   0  0  0  0  0  0  0  0  0  0  0  0
    3.5489    0.4523    2.8810 H   0  0  0  0  0  0  0  0  0  0  0  0
    5.0669    2.3672    2.7160 H   0  0  0  0  0  0  0  0  0  0  0  0
    6.4590    3.7610    1.5213 H   0  0  0  0  0  0  0  0  0  0  0  0
    7.8270    2.3960   -0.8517 H   0  0  0  0  0  0  0  0  0  0  0  0
    8.2246    2.1783    0.8474 H   0  0  0  0  0  0  0  0  0  0  0  0
    8.8860    4.5297    1.0571 H   0  0  0  0  0  0  0  0  0  0  0  0
    9.7465    3.7931   -0.2923 H   0  0  0  0  0  0  0  0  0  0  0  0
    8.2117    4.8110   -1.9120 H   0  0  0  0  0  0  0  0  0  0  0  0
    8.8656    6.0627   -0.8581 H   0  0  0  0  0  0  0  0  0  0  0  0
    6.8081    6.1032    0.4774 H   0  0  0  0  0  0  0  0  0  0  0  0
    6.4067    6.3221   -1.2240 H   0  0  0  0  0  0  0  0  0  0  0  0
    4.8621    4.7247   -0.0905 H   0  0  0  0  0  0  0  0  0  0  0  0
    5.7196    3.9916   -1.4394 H   0  0  0  0  0  0  0  0  0  0  0  0
    5.6270    1.5487   -1.4847 H   0  0  0  0  0  0  0  0  0  0  0  0
    4.1210   -0.3710   -1.3090 H   0  0  0  0  0  0  0  0  0  0  0  0
    4.0051   -2.3084    2.3321 H   0  0  0  0  0  0  0  0  0  0  0  0
   -0.4271   -4.1856    2.5527 H   0  0  0  0  0  0  0  0  0  0  0  0
   -0.8556   -4.5907    0.9127 H   0  0  0  0  0  0  0  0  0  0  0  0
    0.0162   -6.4989    2.3667 H   0  0  0  0  0  0  0  0  0  0  0  0
    0.7094   -6.3627    0.7677 H   0  0  0  0  0  0  0  0  0  0  0  0
    2.7814   -6.0984    1.5260 H   0  0  0  0  0  0  0  0  0  0  0  0
    2.1819   -6.6103    3.0915 H   0  0  0  0  0  0  0  0  0  0  0  0
    1.9080   -4.2702    3.8167 H   0  0  0  0  0  0  0  0  0  0  0  0
    3.5328   -4.4996    3.1614 H   0  0  0  0  0  0  0  0  0  0  0  0
  1  2  2  0  0  0  0
  2  4  1  0  0  0  0
  2  3  1  0  0  0  0
  5  4  1  0  0  0  0
  6  7  1  0  0  0  0
  6  5  2  0  0  0  0
  7  8  2  0  0  0  0
  8  9  1  0  0  0  0
  8 51  1  0  0  0  0
  9 52  1  0  0  0  0
 10 11  1  0  0  0  0
 10  9  2  0  0  0  0
 11 12  1  0  0  0  0
 12 55  1  0  0  0  0
 12 13  1  0  0  0  0
 13 57  1  0  0  0  0
 13 56  1  0  0  0  0
 14 13  1  0  0  0  0
 14 59  1  0  0  0  0
 15 61  1  0  0  0  0
 15 14  1  0  0  0  0
 16 11  1  0  0  0  0
 16 15  1  0  0  0  0
 17 10  1  0  0  0  0
 18 17  2  0  0  0  0
 18  7  1  0  0  0  0
 19  6  1  0  0  0  0
 20 19  2  0  0  0  0
 20 21  1  0  0  0  0
 21 26  2  0  0  0  0
 22 21  1  0  0  0  0
 22 67  1  0  0  0  0
 23 22  1  0  0  0  0
 23 69  1  0  0  0  0
 24 23  1  0  0  0  0
 24 72  1  0  0  0  0
 25 24  1  0  0  0  0
 25 20  1  0  0  0  0
 26  5  1  0  0  0  0
 26 27  1  0  0  0  0
 27 45  1  0  0  0  0
 28 27  2  0  0  0  0
 28 30  1  0  0  0  0
 29  2  1  0  0  0  0
 29 28  1  0  0  0  0
 30 43  2  0  0  0  0
 31 30  1  0  0  0  0
 31 32  2  0  0  0  0
 32 75  1  0  0  0  0
 33 32  1  0  0  0  0
 33 76  1  0  0  0  0
 34 33  2  0  0  0  0
 35 34  1  0  0  0  0
 35 77  1  0  0  0  0
 36 35  1  0  0  0  0
 36 79  1  0  0  0  0
 37 36  1  0  0  0  0
 37 80  1  0  0  0  0
 38 83  1  0  0  0  0
 38 39  1  0  0  0  0
 38 37  1  0  0  0  0
 39 40  1  0  0  0  0
 39 84  1  0  0  0  0
 40 86  1  0  0  0  0
 40 35  1  0  0  0  0
 41 42  2  0  0  0  0
 41 34  1  0  0  0  0
 42 31  1  0  0  0  0
 43 44  1  0  0  0  0
 43 90  1  0  0  0  0
 44 49  1  0  0  0  0
 45 46  1  0  0  0  0
 45 44  2  0  0  0  0
 46 47  1  0  0  0  0
 46 91  1  0  0  0  0
 47 48  1  0  0  0  0
 47 93  1  0  0  0  0
 48 49  1  0  0  0  0
 48 96  1  0  0  0  0
 49 98  1  0  0  0  0
 49 97  1  0  0  0  0
 50  3  1  0  0  0  0
 53 11  1  0  0  0  0
 54 12  1  0  0  0  0
 58 14  1  0  0  0  0
 60 15  1  0  0  0  0
 62 16  1  0  0  0  0
 63 16  1  0  0  0  0
 64 17  1  0  0  0  0
 65 18  1  0  0  0  0
 66 19  1  0  0  0  0
 68 22  1  0  0  0  0
 70 23  1  0  0  0  0
 71 24  1  0  0  0  0
 73 25  1  0  0  0  0
 74 25  1  0  0  0  0
 78 36  1  0  0  0  0
 81 37  1  0  0  0  0
 82 38  1  0  0  0  0
 85 39  1  0  0  0  0
 87 40  1  0  0  0  0
 88 41  1  0  0  0  0
 89 42  1  0  0  0  0
 92 46  1  0  0  0  0
 94 47  1  0  0  0  0
 95 48  1  0  0  0  0
M  END
$$$$
