O=P1(O)OC2=C(C3=CC=C(C4CCCCC4)C=C3)C=C5C(CCCC5)=C2C6=C(O1)C(C7=CC=C(C8CCCCC8)C=C7)=CC9=C6CCCC9
 OpenBabel09032010383D

 98106  0  0  0  0  0  0  0  0999 V2000
    0.3840    1.5746    0.9714 O   0  0  0  0  0  0  0  0  0  0  0  0
   -0.0131    0.5475   -0.0435 P   0  0  0  0  0  0  0  0  0  0  0  0
   -0.6480    1.2355   -1.3534 O   0  0  0  0  0  0  0  0  0  0  0  0
   -1.1746   -0.4612    0.4428 O   0  0  0  0  0  0  0  0  0  0  0  0
   -1.4803   -1.5477   -0.3466 C   0  0  0  0  0  0  0  0  0  0  0  0
   -2.7413   -1.5559   -0.9708 C   0  0  0  0  0  0  0  0  0  0  0  0
   -3.7105   -0.4582   -0.8039 C   0  0  0  0  0  0  0  0  0  0  0  0
   -4.1476    0.2892   -1.9079 C   0  0  0  0  0  0  0  0  0  0  0  0
   -5.0555    1.3423   -1.7538 C   0  0  0  0  0  0  0  0  0  0  0  0
   -5.5557    1.6770   -0.4888 C   0  0  0  0  0  0  0  0  0  0  0  0
   -6.5349    2.8283   -0.3421 C   0  0  0  0  0  0  0  0  0  0  0  0
   -5.8783    4.0450    0.3422 C   0  0  0  0  0  0  0  0  0  0  0  0
   -6.8843    4.9733    1.0295 C   0  0  0  0  0  0  0  0  0  0  0  0
   -8.2438    4.9505    0.3448 C   0  0  0  0  0  0  0  0  0  0  0  0
   -8.8647    3.5523    0.3534 C   0  0  0  0  0  0  0  0  0  0  0  0
   -7.8311    2.4220    0.3741 C   0  0  0  0  0  0  0  0  0  0  0  0
   -5.1194    0.9356    0.6171 C   0  0  0  0  0  0  0  0  0  0  0  0
   -4.2129   -0.1178    0.4598 C   0  0  0  0  0  0  0  0  0  0  0  0
   -3.0450   -2.6419   -1.7957 C   0  0  0  0  0  0  0  0  0  0  0  0
   -2.1134   -3.6624   -2.0377 C   0  0  0  0  0  0  0  0  0  0  0  0
   -0.8443   -3.6201   -1.4127 C   0  0  0  0  0  0  0  0  0  0  0  0
    0.2197   -4.6264   -1.8320 C   0  0  0  0  0  0  0  0  0  0  0  0
   -0.0736   -5.3184   -3.1624 C   0  0  0  0  0  0  0  0  0  0  0  0
   -1.4901   -5.8681   -3.1496 C   0  0  0  0  0  0  0  0  0  0  0  0
   -2.4893   -4.7223   -3.0488 C   0  0  0  0  0  0  0  0  0  0  0  0
   -0.5305   -2.5883   -0.4724 C   0  0  0  0  0  0  0  0  0  0  0  0
    0.6928   -2.5426    0.2812 C   0  0  0  0  0  0  0  0  0  0  0  0
    1.5732   -1.4452    0.1296 C   0  0  0  0  0  0  0  0  0  0  0  0
    1.1714   -0.3739   -0.6380 O   0  0  0  0  0  0  0  0  0  0  0  0
    2.8546   -1.3954    0.7012 C   0  0  0  0  0  0  0  0  0  0  0  0
    3.7787   -0.2806    0.4641 C   0  0  0  0  0  0  0  0  0  0  0  0
    3.7137    0.8871    1.2343 C   0  0  0  0  0  0  0  0  0  0  0  0
    4.5997    1.9451    1.0083 C   0  0  0  0  0  0  0  0  0  0  0  0
    5.5786    1.8600    0.0088 C   0  0  0  0  0  0  0  0  0  0  0  0
    6.5433    3.0003   -0.2624 C   0  0  0  0  0  0  0  0  0  0  0  0
    5.8312    4.1970   -0.9263 C   0  0  0  0  0  0  0  0  0  0  0  0
    6.5487    5.5320   -0.7043 C   0  0  0  0  0  0  0  0  0  0  0  0
    8.0523    5.3538   -0.5464 C   0  0  0  0  0  0  0  0  0  0  0  0
    8.4001    4.4678    0.6513 C   0  0  0  0  0  0  0  0  0  0  0  0
    7.3157    3.4402    0.9899 C   0  0  0  0  0  0  0  0  0  0  0  0
    5.6415    0.6929   -0.7647 C   0  0  0  0  0  0  0  0  0  0  0  0
    4.7543   -0.3639   -0.5380 C   0  0  0  0  0  0  0  0  0  0  0  0
    3.2443   -2.4550    1.5235 C   0  0  0  0  0  0  0  0  0  0  0  0
    2.3732   -3.5160    1.8093 C   0  0  0  0  0  0  0  0  0  0  0  0
    1.0870   -3.5474    1.2202 C   0  0  0  0  0  0  0  0  0  0  0  0
    0.0906   -4.6065    1.6724 C   0  0  0  0  0  0  0  0  0  0  0  0
    0.4552   -5.2697    2.9999 C   0  0  0  0  0  0  0  0  0  0  0  0
    1.8996   -5.7401    2.9558 C   0  0  0  0  0  0  0  0  0  0  0  0
    2.8316   -4.5422    2.8205 C   0  0  0  0  0  0  0  0  0  0  0  0
   -1.2455    1.9593   -1.0923 H   0  0  0  0  0  0  0  0  0  0  0  0
   -3.7696    0.0625   -2.9033 H   0  0  0  0  0  0  0  0  0  0  0  0
   -5.3673    1.8991   -2.6351 H   0  0  0  0  0  0  0  0  0  0  0  0
   -6.8281    3.1444   -1.3541 H   0  0  0  0  0  0  0  0  0  0  0  0
   -5.1325    3.7405    1.0871 H   0  0  0  0  0  0  0  0  0  0  0  0
   -5.3213    4.6100   -0.4170 H   0  0  0  0  0  0  0  0  0  0  0  0
   -7.0049    4.6651    2.0758 H   0  0  0  0  0  0  0  0  0  0  0  0
   -6.4865    5.9942    1.0495 H   0  0  0  0  0  0  0  0  0  0  0  0
   -8.9258    5.6580    0.8299 H   0  0  0  0  0  0  0  0  0  0  0  0
   -8.1289    5.2908   -0.6921 H   0  0  0  0  0  0  0  0  0  0  0  0
   -9.5211    3.4430    1.2253 H   0  0  0  0  0  0  0  0  0  0  0  0
   -9.5094    3.4492   -0.5279 H   0  0  0  0  0  0  0  0  0  0  0  0
   -8.2668    1.5249   -0.0829 H   0  0  0  0  0  0  0  0  0  0  0  0
   -7.6190    2.1604    1.4190 H   0  0  0  0  0  0  0  0  0  0  0  0
   -5.4748    1.1715    1.6176 H   0  0  0  0  0  0  0  0  0  0  0  0
   -3.8941   -0.6739    1.3399 H   0  0  0  0  0  0  0  0  0  0  0  0
   -4.0141   -2.6782   -2.2928 H   0  0  0  0  0  0  0  0  0  0  0  0
    0.3110   -5.4023   -1.0705 H   0  0  0  0  0  0  0  0  0  0  0  0
    1.1912   -4.1268   -1.9239 H   0  0  0  0  0  0  0  0  0  0  0  0
    0.0481   -4.6119   -3.9931 H   0  0  0  0  0  0  0  0  0  0  0  0
    0.6454   -6.1301   -3.3205 H   0  0  0  0  0  0  0  0  0  0  0  0
   -1.6837   -6.4490   -4.0582 H   0  0  0  0  0  0  0  0  0  0  0  0
   -1.6150   -6.5506   -2.2994 H   0  0  0  0  0  0  0  0  0  0  0  0
   -3.4760   -5.1331   -2.8030 H   0  0  0  0  0  0  0  0  0  0  0  0
   -2.5689   -4.2366   -4.0300 H   0  0  0  0  0  0  0  0  0  0  0  0
    2.9592    0.9879    2.0126 H   0  0  0  0  0  0  0  0  0  0  0  0
    4.5047    2.8414    1.6169 H   0  0  0  0  0  0  0  0  0  0  0  0
    7.2964    2.6341   -0.9757 H   0  0  0  0  0  0  0  0  0  0  0  0
    5.7547    3.9997   -2.0039 H   0  0  0  0  0  0  0  0  0  0  0  0
    4.7978    4.3033   -0.5733 H   0  0  0  0  0  0  0  0  0  0  0  0
    6.1481    6.0126    0.1973 H   0  0  0  0  0  0  0  0  0  0  0  0
    6.3323    6.2076   -1.5396 H   0  0  0  0  0  0  0  0  0  0  0  0
    8.5412    6.3284   -0.4363 H   0  0  0  0  0  0  0  0  0  0  0  0
    8.4583    4.9040   -1.4613 H   0  0  0  0  0  0  0  0  0  0  0  0
    9.3466    3.9537    0.4444 H   0  0  0  0  0  0  0  0  0  0  0  0
    8.5795    5.0920    1.5351 H   0  0  0  0  0  0  0  0  0  0  0  0
    6.6280    3.8848    1.7209 H   0  0  0  0  0  0  0  0  0  0  0  0
    7.7767    2.5787    1.4888 H   0  0  0  0  0  0  0  0  0  0  0  0
    6.3801    0.5953   -1.5571 H   0  0  0  0  0  0  0  0  0  0  0  0
    4.8227   -1.2559   -1.1570 H   0  0  0  0  0  0  0  0  0  0  0  0
    4.2300   -2.4301    1.9879 H   0  0  0  0  0  0  0  0  0  0  0  0
   -0.9038   -4.1587    1.7852 H   0  0  0  0  0  0  0  0  0  0  0  0
    0.0208   -5.3923    0.9189 H   0  0  0  0  0  0  0  0  0  0  0  0
    0.3151   -4.5639    3.8282 H   0  0  0  0  0  0  0  0  0  0  0  0
   -0.2133   -6.1186    3.1822 H   0  0  0  0  0  0  0  0  0  0  0  0
    2.0409   -6.4228    2.1083 H   0  0  0  0  0  0  0  0  0  0  0  0
    2.1474   -6.3009    3.8639 H   0  0  0  0  0  0  0  0  0  0  0  0
    2.9079   -4.0423    3.7949 H   0  0  0  0  0  0  0  0  0  0  0  0
    3.8332   -4.9009    2.5545 H   0  0  0  0  0  0  0  0  0  0  0  0
  2  4  1  0  0  0  0
  2  1  2  0  0  0  0
  3 50  1  0  0  0  0
  3  2  1  0  0  0  0
  5  4  1  0  0  0  0
  6  7  1  0  0  0  0
  6  5  2  0  0  0  0
  7 18  2  0  0  0  0
  8  9  2  0  0  0  0
  8  7  1  0  0  0  0
  9 10  1  0  0  0  0
 10 11  1  0  0  0  0
 10 17  2  0  0  0  0
 11 12  1  0  0  0  0
 11 16  1  0  0  0  0
 12 13  1  0  0  0  0
 12 54  1  0  0  0  0
 13 57  1  0  0  0  0
 13 56  1  0  0  0  0
 14 15  1  0  0  0  0
 14 58  1  0  0  0  0
 14 13  1  0  0  0  0
 15 16  1  0  0  0  0
 15 60  1  0  0  0  0
 16 63  1  0  0  0  0
 17 64  1  0  0  0  0
 18 17  1  0  0  0  0
 18 65  1  0  0  0  0
 19  6  1  0  0  0  0
 20 19  2  0  0  0  0
 20 21  1  0  0  0  0
 21 26  2  0  0  0  0
 22 21  1  0  0  0  0
 22 67  1  0  0  0  0
 23 24  1  0  0  0  0
 23 22  1  0  0  0  0
 24 25  1  0  0  0  0
 24 72  1  0  0  0  0
 25 73  1  0  0  0  0
 25 20  1  0  0  0  0
 26  5  1  0  0  0  0
 26 27  1  0  0  0  0
 27 45  1  0  0  0  0
 28 27  2  0  0  0  0
 28 30  1  0  0  0  0
 29  2  1  0  0  0  0
 29 28  1  0  0  0  0
 30 43  2  0  0  0  0
 31 30  1  0  0  0  0
 31 32  2  0  0  0  0
 32 75  1  0  0  0  0
 33 32  1  0  0  0  0
 33 76  1  0  0  0  0
 34 33  2  0  0  0  0
 35 34  1  0  0  0  0
 35 40  1  0  0  0  0
 36 37  1  0  0  0  0
 36 79  1  0  0  0  0
 36 35  1  0  0  0  0
 37 38  1  0  0  0  0
 37 80  1  0  0  0  0
 38 82  1  0  0  0  0
 38 39  1  0  0  0  0
 39 40  1  0  0  0  0
 39 85  1  0  0  0  0
 40 87  1  0  0  0  0
 40 86  1  0  0  0  0
 41 42  2  0  0  0  0
 41 34  1  0  0  0  0
 42 31  1  0  0  0  0
 43 44  1  0  0  0  0
 43 90  1  0  0  0  0
 44 49  1  0  0  0  0
 45 46  1  0  0  0  0
 45 44  2  0  0  0  0
 46 91  1  0  0  0  0
 46 47  1  0  0  0  0
 47 94  1  0  0  0  0
 47 93  1  0  0  0  0
 48 47  1  0  0  0  0
 48 96  1  0  0  0  0
 49 48  1  0  0  0  0
 49 97  1  0  0  0  0
 51  8  1  0  0  0  0
 52  9  1  0  0  0  0
 53 11  1  0  0  0  0
 55 12  1  0  0  0  0
 59 14  1  0  0  0  0
 61 15  1  0  0  0  0
 62 16  1  0  0  0  0
 66 19  1  0  0  0  0
 68 22  1  0  0  0  0
 69 23  1  0  0  0  0
 70 23  1  0  0  0  0
 71 24  1  0  0  0  0
 74 25  1  0  0  0  0
 77 35  1  0  0  0  0
 78 36  1  0  0  0  0
 81 37  1  0  0  0  0
 83 38  1  0  0  0  0
 84 39  1  0  0  0  0
 88 41  1  0  0  0  0
 89 42  1  0  0  0  0
 92 46  1  0  0  0  0
 95 48  1  0  0  0  0
 98 49  1  0  0  0  0
M  END
$$$$
