O=P1(O)OC2=C(C3=C(C=CC=C4)C4=CC5=C3C=CC=C5)C=C6C(C=CC=C6)=C2C7=C(O1)[C@@]([C@@]8=C(C=CC=C9)C9=CC%10=C8C=CC=C%10)=CC%11=C7C=CC=C%11
 OpenBabel09032010383D

 82 92  0  0  0  0  0  0  0  0999 V2000
   -0.6122    2.7600    0.1167 O   0  0  0  0  0  0  0  0  0  0  0  0
   -0.1013    1.4374    0.5909 P   0  0  0  0  0  0  0  0  0  0  0  0
    0.5029    1.5395    2.0767 O   0  0  0  0  0  0  0  0  0  0  0  0
    1.1187    0.8383   -0.2726 O   0  0  0  0  0  0  0  0  0  0  0  0
    1.5497   -0.4484   -0.0456 C   0  0  0  0  0  0  0  0  0  0  0  0
    2.8726   -0.5903    0.4152 C   0  0  0  0  0  0  0  0  0  0  0  0
    3.7514    0.5782    0.6727 C   0  0  0  0  0  0  0  0  0  0  0  0
    4.4492    1.1980   -0.4148 C   0  0  0  0  0  0  0  0  0  0  0  0
    4.3630    0.7627   -1.7616 C   0  0  0  0  0  0  0  0  0  0  0  0
    5.0604    1.3963   -2.7927 C   0  0  0  0  0  0  0  0  0  0  0  0
    5.8694    2.4862   -2.5095 C   0  0  0  0  0  0  0  0  0  0  0  0
    5.9785    2.9389   -1.1968 C   0  0  0  0  0  0  0  0  0  0  0  0
    5.2811    2.3094   -0.1506 C   0  0  0  0  0  0  0  0  0  0  0  0
    5.4126    2.7855    1.1589 C   0  0  0  0  0  0  0  0  0  0  0  0
    4.7417    2.1903    2.2332 C   0  0  0  0  0  0  0  0  0  0  0  0
    3.9040    1.0752    2.0080 C   0  0  0  0  0  0  0  0  0  0  0  0
    3.2538    0.5197    3.1389 C   0  0  0  0  0  0  0  0  0  0  0  0
    3.4176    1.0431    4.4230 C   0  0  0  0  0  0  0  0  0  0  0  0
    4.2447    2.1378    4.6193 C   0  0  0  0  0  0  0  0  0  0  0  0
    4.9027    2.7063    3.5311 C   0  0  0  0  0  0  0  0  0  0  0  0
    3.3657   -1.8799    0.6200 C   0  0  0  0  0  0  0  0  0  0  0  0
    2.5618   -3.0025    0.4165 C   0  0  0  0  0  0  0  0  0  0  0  0
    1.2304   -2.8517   -0.0572 C   0  0  0  0  0  0  0  0  0  0  0  0
    0.4615   -4.0408   -0.1430 C   0  0  0  0  0  0  0  0  0  0  0  0
    0.9861   -5.3016    0.1549 C   0  0  0  0  0  0  0  0  0  0  0  0
    2.3028   -5.4187    0.5688 C   0  0  0  0  0  0  0  0  0  0  0  0
    3.0834   -4.2748    0.7037 C   0  0  0  0  0  0  0  0  0  0  0  0
    0.7108   -1.5422   -0.3721 C   0  0  0  0  0  0  0  0  0  0  0  0
   -0.5768   -1.3199   -1.0033 C   0  0  0  0  0  0  0  0  0  0  0  0
   -1.5204   -0.4442   -0.4121 C   0  0  0  0  0  0  0  0  0  0  0  0
   -1.1764    0.2474    0.7254 O   0  0  0  0  0  0  0  0  0  0  0  0
   -2.8433   -0.3014   -0.8663 C   0  0  0  0  0  0  0  0  0  0  0  0
   -3.8334    0.5586   -0.1722 C   0  0  0  0  0  0  0  0  0  0  0  0
   -4.5474    0.0495    0.9620 C   0  0  0  0  0  0  0  0  0  0  0  0
   -4.3608   -1.2504    1.4978 C   0  0  0  0  0  0  0  0  0  0  0  0
   -5.0778   -1.7070    2.6064 C   0  0  0  0  0  0  0  0  0  0  0  0
   -6.0074   -0.8777    3.2153 C   0  0  0  0  0  0  0  0  0  0  0  0
   -6.2174    0.4045    2.7133 C   0  0  0  0  0  0  0  0  0  0  0  0
   -5.5022    0.8747    1.5975 C   0  0  0  0  0  0  0  0  0  0  0  0
   -5.7395    2.1659    1.1124 C   0  0  0  0  0  0  0  0  0  0  0  0
   -5.0533    2.6784    0.0054 C   0  0  0  0  0  0  0  0  0  0  0  0
   -4.0874    1.8842   -0.6525 C   0  0  0  0  0  0  0  0  0  0  0  0
   -3.4203    2.4661   -1.7597 C   0  0  0  0  0  0  0  0  0  0  0  0
   -3.6966    3.7639   -2.1954 C   0  0  0  0  0  0  0  0  0  0  0  0
   -4.6534    4.5221   -1.5385 C   0  0  0  0  0  0  0  0  0  0  0  0
   -5.3263    3.9823   -0.4449 C   0  0  0  0  0  0  0  0  0  0  0  0
   -3.2296   -1.0147   -2.0031 C   0  0  0  0  0  0  0  0  0  0  0  0
   -2.3245   -1.8203   -2.6972 C   0  0  0  0  0  0  0  0  0  0  0  0
   -0.9930   -1.9679   -2.2242 C   0  0  0  0  0  0  0  0  0  0  0  0
   -0.1212   -2.7315   -3.0426 C   0  0  0  0  0  0  0  0  0  0  0  0
   -0.5468   -3.3625   -4.2150 C   0  0  0  0  0  0  0  0  0  0  0  0
   -1.8643   -3.2378   -4.6245 C   0  0  0  0  0  0  0  0  0  0  0  0
   -2.7453   -2.4660   -3.8723 C   0  0  0  0  0  0  0  0  0  0  0  0
    1.0316    2.3519    2.1784 H   0  0  0  0  0  0  0  0  0  0  0  0
    3.7391   -0.0877   -2.0291 H   0  0  0  0  0  0  0  0  0  0  0  0
    4.9663    1.0351   -3.8134 H   0  0  0  0  0  0  0  0  0  0  0  0
    6.4146    2.9843   -3.3064 H   0  0  0  0  0  0  0  0  0  0  0  0
    6.6191    3.7952   -0.9948 H   0  0  0  0  0  0  0  0  0  0  0  0
    6.0577    3.6430    1.3472 H   0  0  0  0  0  0  0  0  0  0  0  0
    2.5818   -0.3304    3.0294 H   0  0  0  0  0  0  0  0  0  0  0  0
    2.8922    0.5932    5.2616 H   0  0  0  0  0  0  0  0  0  0  0  0
    4.3798    2.5497    5.6158 H   0  0  0  0  0  0  0  0  0  0  0  0
    5.5494    3.5640    3.7059 H   0  0  0  0  0  0  0  0  0  0  0  0
    4.3896   -1.9994    0.9739 H   0  0  0  0  0  0  0  0  0  0  0  0
   -0.5861   -3.9993   -0.4358 H   0  0  0  0  0  0  0  0  0  0  0  0
    0.3579   -6.1841    0.0673 H   0  0  0  0  0  0  0  0  0  0  0  0
    2.7197   -6.3933    0.8052 H   0  0  0  0  0  0  0  0  0  0  0  0
    4.1084   -4.3855    1.0539 H   0  0  0  0  0  0  0  0  0  0  0  0
   -3.6390   -1.9322    1.0533 H   0  0  0  0  0  0  0  0  0  0  0  0
   -4.9036   -2.7087    2.9899 H   0  0  0  0  0  0  0  0  0  0  0  0
   -6.5681   -1.2248    4.0787 H   0  0  0  0  0  0  0  0  0  0  0  0
   -6.9510    1.0409    3.2041 H   0  0  0  0  0  0  0  0  0  0  0  0
   -6.4785    2.7911    1.6115 H   0  0  0  0  0  0  0  0  0  0  0  0
   -2.6480    1.9156   -2.2926 H   0  0  0  0  0  0  0  0  0  0  0  0
   -3.1508    4.1787   -3.0384 H   0  0  0  0  0  0  0  0  0  0  0  0
   -4.8701    5.5341   -1.8686 H   0  0  0  0  0  0  0  0  0  0  0  0
   -6.0685    4.5954    0.0621 H   0  0  0  0  0  0  0  0  0  0  0  0
   -4.2537   -0.9114   -2.3619 H   0  0  0  0  0  0  0  0  0  0  0  0
    0.9296   -2.8372   -2.7793 H   0  0  0  0  0  0  0  0  0  0  0  0
    0.1579   -3.9438   -4.8040 H   0  0  0  0  0  0  0  0  0  0  0  0
   -2.2050   -3.7232   -5.5348 H   0  0  0  0  0  0  0  0  0  0  0  0
   -3.7706   -2.3599   -4.2230 H   0  0  0  0  0  0  0  0  0  0  0  0
  1  2  2  0  0  0  0
  2 31  1  0  0  0  0
  2  3  1  0  0  0  0
  3 54  1  0  0  0  0
  4  5  1  0  0  0  0
  4  2  1  0  0  0  0
  5  6  2  0  0  0  0
  6 21  1  0  0  0  0
  6  7  1  0  0  0  0
  7 16  2  0  0  0  0
  8 13  1  0  0  0  0
  8  7  1  0  0  0  0
  9  8  2  0  0  0  0
 10 11  2  0  0  0  0
 10  9  1  0  0  0  0
 11 12  1  0  0  0  0
 12 58  1  0  0  0  0
 12 13  2  0  0  0  0
 13 14  1  0  0  0  0
 14 59  1  0  0  0  0
 14 15  2  0  0  0  0
 15 20  1  0  0  0  0
 16 15  1  0  0  0  0
 16 17  1  0  0  0  0
 17 18  2  0  0  0  0
 18 19  1  0  0  0  0
 18 61  1  0  0  0  0
 19 62  1  0  0  0  0
 20 63  1  0  0  0  0
 20 19  2  0  0  0  0
 21 64  1  0  0  0  0
 22 21  2  0  0  0  0
 22 27  1  0  0  0  0
 23 22  1  0  0  0  0
 24 23  1  0  0  0  0
 24 25  2  0  0  0  0
 25 26  1  0  0  0  0
 26 27  2  0  0  0  0
 26 67  1  0  0  0  0
 27 68  1  0  0  0  0
 28 23  2  0  0  0  0
 28  5  1  0  0  0  0
 29 30  2  0  0  0  0
 29 28  1  0  0  0  0
 30 31  1  0  0  0  0
 32 30  1  0  0  0  0
 32 33  1  0  0  0  0
 33 34  1  0  0  0  0
 34 35  2  0  0  0  0
 34 39  1  0  0  0  0
 35 36  1  0  0  0  0
 36 70  1  0  0  0  0
 36 37  2  0  0  0  0
 37 71  1  0  0  0  0
 38 72  1  0  0  0  0
 38 37  1  0  0  0  0
 39 38  2  0  0  0  0
 40 39  1  0  0  0  0
 40 73  1  0  0  0  0
 41 40  2  0  0  0  0
 42 33  2  0  0  0  0
 42 41  1  0  0  0  0
 43 42  1  0  0  0  0
 44 43  2  0  0  0  0
 44 45  1  0  0  0  0
 45 46  2  0  0  0  0
 46 41  1  0  0  0  0
 46 77  1  0  0  0  0
 47 32  2  0  0  0  0
 48 49  1  0  0  0  0
 48 47  1  0  0  0  0
 49 29  1  0  0  0  0
 50 79  1  0  0  0  0
 50 49  2  0  0  0  0
 51 50  1  0  0  0  0
 52 51  2  0  0  0  0
 52 53  1  0  0  0  0
 53 48  2  0  0  0  0
 55  9  1  0  0  0  0
 56 10  1  0  0  0  0
 57 11  1  0  0  0  0
 60 17  1  0  0  0  0
 65 24  1  0  0  0  0
 66 25  1  0  0  0  0
 69 35  1  0  0  0  0
 74 43  1  0  0  0  0
 75 44  1  0  0  0  0
 76 45  1  0  0  0  0
 78 47  1  0  0  0  0
 80 51  1  0  0  0  0
 81 52  1  0  0  0  0
 82 53  1  0  0  0  0
M  END
$$$$
