O=P1(O)OC2=C(C3=CC(C4=CC(C(F)(F)F)=CC(C(F)(F)F)=C4)=CC(C5=CC(C(F)(F)F)=CC(C(F)(F)F)=C5)=C3)C=C6C(C=CC=C6)=C2C7=C(O1)C(C8=CC(C9=CC(C(F)(F)F)=CC(C(F)(F)F)=C9)=CC(C%10=CC(C(F)(F)F)=CC(C(F)(F)F)=C%10)=C8)=CC%11=C7C=CC=C%11
 OpenBabel09032010373D

122132  0  0  0  0  0  0  0  0999 V2000
    0.2327   -1.0834   -0.6558 O   0  0  0  0  0  0  0  0  0  0  0  0
    0.0358   -0.2331    0.5653 P   0  0  0  0  0  0  0  0  0  0  0  0
   -0.3893   -1.1549    1.8173 O   0  0  0  0  0  0  0  0  0  0  0  0
    1.3447    0.4993    1.1375 O   0  0  0  0  0  0  0  0  0  0  0  0
    1.6947    1.7039    0.5823 C   0  0  0  0  0  0  0  0  0  0  0  0
    2.8821    1.7301   -0.1696 C   0  0  0  0  0  0  0  0  0  0  0  0
    3.6913    0.5260   -0.4023 C   0  0  0  0  0  0  0  0  0  0  0  0
    3.3965   -0.3346   -1.4721 C   0  0  0  0  0  0  0  0  0  0  0  0
    4.1625   -1.4811   -1.7220 C   0  0  0  0  0  0  0  0  0  0  0  0
    3.8545   -2.3950   -2.8387 C   0  0  0  0  0  0  0  0  0  0  0  0
    2.5472   -2.8518   -3.0780 C   0  0  0  0  0  0  0  0  0  0  0  0
    2.2561   -3.7456   -4.1252 C   0  0  0  0  0  0  0  0  0  0  0  0
    0.8440   -4.2382   -4.3462 C   0  0  0  0  0  0  0  0  0  0  0  0
   -0.0998   -3.3702   -3.8878 F   0  0  0  0  0  0  0  0  0  0  0  0
    0.6071   -5.4206   -3.7166 F   0  0  0  0  0  0  0  0  0  0  0  0
    0.5542   -4.4449   -5.6605 F   0  0  0  0  0  0  0  0  0  0  0  0
    3.3045   -4.2073   -4.9357 C   0  0  0  0  0  0  0  0  0  0  0  0
    4.6209   -3.7779   -4.7171 C   0  0  0  0  0  0  0  0  0  0  0  0
    5.7576   -4.2610   -5.5854 C   0  0  0  0  0  0  0  0  0  0  0  0
    6.0382   -3.3934   -6.5957 F   0  0  0  0  0  0  0  0  0  0  0  0
    5.5014   -5.4591   -6.1807 F   0  0  0  0  0  0  0  0  0  0  0  0
    6.9196   -4.4272   -4.8956 F   0  0  0  0  0  0  0  0  0  0  0  0
    4.8751   -2.8622   -3.6837 C   0  0  0  0  0  0  0  0  0  0  0  0
    5.2511   -1.7389   -0.8688 C   0  0  0  0  0  0  0  0  0  0  0  0
    5.5842   -0.9062    0.2158 C   0  0  0  0  0  0  0  0  0  0  0  0
    6.7471   -1.2201    1.0742 C   0  0  0  0  0  0  0  0  0  0  0  0
    7.0312   -2.5448    1.4521 C   0  0  0  0  0  0  0  0  0  0  0  0
    8.1681   -2.8782    2.2083 C   0  0  0  0  0  0  0  0  0  0  0  0
    8.4352   -4.3228    2.5588 C   0  0  0  0  0  0  0  0  0  0  0  0
    8.2104   -5.1633    1.5102 F   0  0  0  0  0  0  0  0  0  0  0  0
    9.7168   -4.5534    2.9560 F   0  0  0  0  0  0  0  0  0  0  0  0
    7.6414   -4.7637    3.5723 F   0  0  0  0  0  0  0  0  0  0  0  0
    9.0228   -1.8530    2.6352 C   0  0  0  0  0  0  0  0  0  0  0  0
    8.7591   -0.5169    2.3005 C   0  0  0  0  0  0  0  0  0  0  0  0
    9.6918    0.5913    2.7310 C   0  0  0  0  0  0  0  0  0  0  0  0
   10.4893    0.2488    3.7798 F   0  0  0  0  0  0  0  0  0  0  0  0
   10.5282    0.9763    1.7295 F   0  0  0  0  0  0  0  0  0  0  0  0
    9.0261    1.7145    3.1185 F   0  0  0  0  0  0  0  0  0  0  0  0
    7.6299   -0.2190    1.5136 C   0  0  0  0  0  0  0  0  0  0  0  0
    4.7806    0.2241    0.4328 C   0  0  0  0  0  0  0  0  0  0  0  0
    3.2898    2.9493   -0.7079 C   0  0  0  0  0  0  0  0  0  0  0  0
    2.5301    4.1085   -0.5350 C   0  0  0  0  0  0  0  0  0  0  0  0
    1.3269    4.0692    0.2217 C   0  0  0  0  0  0  0  0  0  0  0  0
    0.5770    5.2733    0.2533 C   0  0  0  0  0  0  0  0  0  0  0  0
    1.0127    6.4538   -0.3560 C   0  0  0  0  0  0  0  0  0  0  0  0
    2.2143    6.4706   -1.0434 C   0  0  0  0  0  0  0  0  0  0  0  0
    2.9635    5.3020   -1.1382 C   0  0  0  0  0  0  0  0  0  0  0  0
    0.9014    2.8432    0.8587 C   0  0  0  0  0  0  0  0  0  0  0  0
   -0.2595    2.7522    1.7337 C   0  0  0  0  0  0  0  0  0  0  0  0
   -1.3140    1.8300    1.4712 C   0  0  0  0  0  0  0  0  0  0  0  0
   -1.1385    0.8800    0.4747 O   0  0  0  0  0  0  0  0  0  0  0  0
   -2.5972    1.9157    2.0933 C   0  0  0  0  0  0  0  0  0  0  0  0
   -3.7707    1.1073    1.6691 C   0  0  0  0  0  0  0  0  0  0  0  0
   -5.0252    1.6684    1.3518 C   0  0  0  0  0  0  0  0  0  0  0  0
   -6.0679    0.8969    0.7878 C   0  0  0  0  0  0  0  0  0  0  0  0
   -7.3867    1.4710    0.4427 C   0  0  0  0  0  0  0  0  0  0  0  0
   -7.9997    1.1467   -0.7826 C   0  0  0  0  0  0  0  0  0  0  0  0
   -9.2973    1.5678   -1.1049 C   0  0  0  0  0  0  0  0  0  0  0  0
   -9.9205    1.1367   -2.4109 C   0  0  0  0  0  0  0  0  0  0  0  0
   -9.5918    1.9657   -3.4384 F   0  0  0  0  0  0  0  0  0  0  0  0
   -9.5364   -0.1127   -2.7953 F   0  0  0  0  0  0  0  0  0  0  0  0
  -11.2815    1.1122   -2.3680 F   0  0  0  0  0  0  0  0  0  0  0  0
   -9.9808    2.3919   -0.2019 C   0  0  0  0  0  0  0  0  0  0  0  0
   -9.3896    2.7719    1.0143 C   0  0  0  0  0  0  0  0  0  0  0  0
  -10.1523    3.6296    2.0002 C   0  0  0  0  0  0  0  0  0  0  0  0
  -10.8339    2.8852    2.9130 F   0  0  0  0  0  0  0  0  0  0  0  0
  -11.0776    4.4356    1.4080 F   0  0  0  0  0  0  0  0  0  0  0  0
   -9.3420    4.4562    2.7181 F   0  0  0  0  0  0  0  0  0  0  0  0
   -8.0998    2.2961    1.3277 C   0  0  0  0  0  0  0  0  0  0  0  0
   -5.7968   -0.4491    0.4712 C   0  0  0  0  0  0  0  0  0  0  0  0
   -4.5555   -1.0172    0.7383 C   0  0  0  0  0  0  0  0  0  0  0  0
   -4.0850   -2.2434    0.0794 C   0  0  0  0  0  0  0  0  0  0  0  0
   -2.8134   -2.1826   -0.5144 C   0  0  0  0  0  0  0  0  0  0  0  0
   -2.1767   -3.2695   -1.0990 C   0  0  0  0  0  0  0  0  0  0  0  0
   -0.7347   -3.0720   -1.5363 C   0  0  0  0  0  0  0  0  0  0  0  0
   -0.2950   -4.1077   -2.3131 F   0  0  0  0  0  0  0  0  0  0  0  0
   -0.5429   -1.9508   -2.2812 F   0  0  0  0  0  0  0  0  0  0  0  0
    0.1311   -3.0019   -0.4904 F   0  0  0  0  0  0  0  0  0  0  0  0
   -2.9163   -4.4546   -1.2188 C   0  0  0  0  0  0  0  0  0  0  0  0
   -4.2536   -4.5274   -0.7483 C   0  0  0  0  0  0  0  0  0  0  0  0
   -5.1075   -5.7670   -0.9598 C   0  0  0  0  0  0  0  0  0  0  0  0
   -5.1269   -6.5764    0.1341 F   0  0  0  0  0  0  0  0  0  0  0  0
   -6.4084   -5.4708   -1.2365 F   0  0  0  0  0  0  0  0  0  0  0  0
   -4.6719   -6.5401   -1.9923 F   0  0  0  0  0  0  0  0  0  0  0  0
   -4.8083   -3.4255   -0.0609 C   0  0  0  0  0  0  0  0  0  0  0  0
   -3.6284   -0.2620    1.4713 C   0  0  0  0  0  0  0  0  0  0  0  0
   -2.7512    2.8444    3.1255 C   0  0  0  0  0  0  0  0  0  0  0  0
   -1.6996    3.6659    3.5392 C   0  0  0  0  0  0  0  0  0  0  0  0
   -0.4526    3.6265    2.8620 C   0  0  0  0  0  0  0  0  0  0  0  0
    0.5712    4.4562    3.3882 C   0  0  0  0  0  0  0  0  0  0  0  0
    0.3674    5.3075    4.4776 C   0  0  0  0  0  0  0  0  0  0  0  0
   -0.8720    5.3510    5.0938 C   0  0  0  0  0  0  0  0  0  0  0  0
   -1.8967    4.5316    4.6291 C   0  0  0  0  0  0  0  0  0  0  0  0
   -0.1243   -2.0762    1.6337 H   0  0  0  0  0  0  0  0  0  0  0  0
    2.5554   -0.0984   -2.1240 H   0  0  0  0  0  0  0  0  0  0  0  0
    1.7343   -2.5195   -2.4301 H   0  0  0  0  0  0  0  0  0  0  0  0
    3.0921   -4.9112   -5.7426 H   0  0  0  0  0  0  0  0  0  0  0  0
    5.8978   -2.5117   -3.5386 H   0  0  0  0  0  0  0  0  0  0  0  0
    5.8611   -2.6212   -1.0607 H   0  0  0  0  0  0  0  0  0  0  0  0
    6.3586   -3.3490    1.1491 H   0  0  0  0  0  0  0  0  0  0  0  0
    9.9049   -2.0972    3.2301 H   0  0  0  0  0  0  0  0  0  0  0  0
    7.4535    0.8200    1.2307 H   0  0  0  0  0  0  0  0  0  0  0  0
    4.9903    0.8846    1.2733 H   0  0  0  0  0  0  0  0  0  0  0  0
    4.2022    2.9855   -1.3023 H   0  0  0  0  0  0  0  0  0  0  0  0
   -0.3890    5.3089    0.7532 H   0  0  0  0  0  0  0  0  0  0  0  0
    0.4037    7.3521   -0.2940 H   0  0  0  0  0  0  0  0  0  0  0  0
    2.5607    7.3823   -1.5219 H   0  0  0  0  0  0  0  0  0  0  0  0
    3.8927    5.3293   -1.7052 H   0  0  0  0  0  0  0  0  0  0  0  0
   -5.1782    2.7372    1.4948 H   0  0  0  0  0  0  0  0  0  0  0  0
   -7.4632    0.5302   -1.5063 H   0  0  0  0  0  0  0  0  0  0  0  0
  -10.9883    2.7357   -0.4429 H   0  0  0  0  0  0  0  0  0  0  0  0
   -7.6631    2.5597    2.2919 H   0  0  0  0  0  0  0  0  0  0  0  0
   -6.5417   -1.0440   -0.0532 H   0  0  0  0  0  0  0  0  0  0  0  0
   -2.2924   -1.2286   -0.5330 H   0  0  0  0  0  0  0  0  0  0  0  0
   -2.4666   -5.3215   -1.7045 H   0  0  0  0  0  0  0  0  0  0  0  0
   -5.8160   -3.4985    0.3456 H   0  0  0  0  0  0  0  0  0  0  0  0
   -2.7023   -0.7363    1.7814 H   0  0  0  0  0  0  0  0  0  0  0  0
   -3.7097    2.9081    3.6403 H   0  0  0  0  0  0  0  0  0  0  0  0
    1.5696    4.4415    2.9544 H   0  0  0  0  0  0  0  0  0  0  0  0
    1.1826    5.9282    4.8402 H   0  0  0  0  0  0  0  0  0  0  0  0
   -1.0404    6.0096    5.9414 H   0  0  0  0  0  0  0  0  0  0  0  0
   -2.8583    4.5678    5.1385 H   0  0  0  0  0  0  0  0  0  0  0  0
  1  2  2  0  0  0  0
  2  4  1  0  0  0  0
  2  3  1  0  0  0  0
  5 48  1  0  0  0  0
  5  4  1  0  0  0  0
  6  5  2  0  0  0  0
  7  6  1  0  0  0  0
  7 40  2  0  0  0  0
  8  7  1  0  0  0  0
  9  8  2  0  0  0  0
  9 24  1  0  0  0  0
 10  9  1  0  0  0  0
 11 10  1  0  0  0  0
 11 96  1  0  0  0  0
 12 11  2  0  0  0  0
 13 12  1  0  0  0  0
 13 14  1  0  0  0  0
 13 15  1  0  0  0  0
 16 13  1  0  0  0  0
 17 18  2  0  0  0  0
 17 12  1  0  0  0  0
 18 23  1  0  0  0  0
 19 22  1  0  0  0  0
 19 18  1  0  0  0  0
 20 19  1  0  0  0  0
 21 19  1  0  0  0  0
 23 98  1  0  0  0  0
 23 10  2  0  0  0  0
 24 25  2  0  0  0  0
 25 40  1  0  0  0  0
 25 26  1  0  0  0  0
 26 27  2  0  0  0  0
 26 39  1  0  0  0  0
 27 28  1  0  0  0  0
 28 29  1  0  0  0  0
 28 33  2  0  0  0  0
 29 31  1  0  0  0  0
 29 32  1  0  0  0  0
 30 29  1  0  0  0  0
 33101  1  0  0  0  0
 34 33  1  0  0  0  0
 34 35  1  0  0  0  0
 35 38  1  0  0  0  0
 35 36  1  0  0  0  0
 37 35  1  0  0  0  0
 39 34  2  0  0  0  0
 40103  1  0  0  0  0
 41 42  2  0  0  0  0
 41  6  1  0  0  0  0
 42 43  1  0  0  0  0
 43 44  1  0  0  0  0
 43 48  2  0  0  0  0
 44105  1  0  0  0  0
 45106  1  0  0  0  0
 45 44  2  0  0  0  0
 46 45  1  0  0  0  0
 47 46  2  0  0  0  0
 47 42  1  0  0  0  0
 48 49  1  0  0  0  0
 49 89  1  0  0  0  0
 50 49  2  0  0  0  0
 50 52  1  0  0  0  0
 51  2  1  0  0  0  0
 51 50  1  0  0  0  0
 52 87  2  0  0  0  0
 53 52  1  0  0  0  0
 54109  1  0  0  0  0
 54 53  1  0  0  0  0
 55 54  2  0  0  0  0
 56 55  1  0  0  0  0
 56 69  2  0  0  0  0
 57 56  1  0  0  0  0
 58 57  2  0  0  0  0
 58 63  1  0  0  0  0
 59 62  1  0  0  0  0
 59 58  1  0  0  0  0
 60 59  1  0  0  0  0
 61 59  1  0  0  0  0
 63 64  2  0  0  0  0
 64 69  1  0  0  0  0
 64 65  1  0  0  0  0
 65 68  1  0  0  0  0
 65 66  1  0  0  0  0
 67 65  1  0  0  0  0
 69112  1  0  0  0  0
 70 71  2  0  0  0  0
 70 55  1  0  0  0  0
 71 86  1  0  0  0  0
 72 71  1  0  0  0  0
 73 72  2  0  0  0  0
 74 73  1  0  0  0  0
 75 74  1  0  0  0  0
 75 78  1  0  0  0  0
 76 75  1  0  0  0  0
 77 75  1  0  0  0  0
 79 74  2  0  0  0  0
 79 80  1  0  0  0  0
 80 85  2  0  0  0  0
 81 80  1  0  0  0  0
 81 82  1  0  0  0  0
 83 81  1  0  0  0  0
 84 81  1  0  0  0  0
 85 72  1  0  0  0  0
 85116  1  0  0  0  0
 86 53  2  0  0  0  0
 86117  1  0  0  0  0
 87 88  1  0  0  0  0
 87118  1  0  0  0  0
 88 93  2  0  0  0  0
 89 90  2  0  0  0  0
 89 88  1  0  0  0  0
 90 91  1  0  0  0  0
 91120  1  0  0  0  0
 91 92  2  0  0  0  0
 92121  1  0  0  0  0
 93 92  1  0  0  0  0
 93122  1  0  0  0  0
 94  3  1  0  0  0  0
 95  8  1  0  0  0  0
 97 17  1  0  0  0  0
 99 24  1  0  0  0  0
100 27  1  0  0  0  0
102 39  1  0  0  0  0
104 41  1  0  0  0  0
107 46  1  0  0  0  0
108 47  1  0  0  0  0
110 57  1  0  0  0  0
111 63  1  0  0  0  0
113 70  1  0  0  0  0
114 73  1  0  0  0  0
115 79  1  0  0  0  0
119 90  1  0  0  0  0
M  END
$$$$
