O=P1(O)OC2=C(C3=C(OCC)C=CC(C)=C3)C=C4C(C=CC=C4)=C2C5=C(O1)C(C6=CC(C)=CC=C6OCC)=CC7=C5C=CC=C7
 OpenBabel09032010383D

 78 84  0  0  0  0  0  0  0  0999 V2000
    0.7412    2.2176   -2.0656 O   0  0  0  0  0  0  0  0  0  0  0  0
    0.0112    0.9992   -1.5919 P   0  0  0  0  0  0  0  0  0  0  0  0
   -0.9637    0.4268   -2.7376 O   0  0  0  0  0  0  0  0  0  0  0  0
    0.9144   -0.2744   -1.1970 O   0  0  0  0  0  0  0  0  0  0  0  0
    1.5059   -0.2644    0.0472 C   0  0  0  0  0  0  0  0  0  0  0  0
    2.9069   -0.1677    0.0891 C   0  0  0  0  0  0  0  0  0  0  0  0
    3.7299   -0.1001   -1.1283 C   0  0  0  0  0  0  0  0  0  0  0  0
    4.3588   -1.2390   -1.6593 C   0  0  0  0  0  0  0  0  0  0  0  0
    4.2355   -2.4496   -1.0234 O   0  0  0  0  0  0  0  0  0  0  0  0
    3.2405   -3.2519   -1.6712 C   0  0  0  0  0  0  0  0  0  0  0  0
    2.7807   -4.3106   -0.6861 C   0  0  0  0  0  0  0  0  0  0  0  0
    5.1635   -1.1592   -2.7971 C   0  0  0  0  0  0  0  0  0  0  0  0
    5.3281    0.0643   -3.4450 C   0  0  0  0  0  0  0  0  0  0  0  0
    4.7106    1.2161   -2.9454 C   0  0  0  0  0  0  0  0  0  0  0  0
    4.8490    2.5283   -3.6592 C   0  0  0  0  0  0  0  0  0  0  0  0
    3.9114    1.1229   -1.7950 C   0  0  0  0  0  0  0  0  0  0  0  0
    3.5265   -0.1638    1.3397 C   0  0  0  0  0  0  0  0  0  0  0  0
    2.7831   -0.2207    2.5214 C   0  0  0  0  0  0  0  0  0  0  0  0
    1.3682   -0.3322    2.4689 C   0  0  0  0  0  0  0  0  0  0  0  0
    0.6894   -0.2929    3.7135 C   0  0  0  0  0  0  0  0  0  0  0  0
    1.3634   -0.2153    4.9352 C   0  0  0  0  0  0  0  0  0  0  0  0
    2.7475   -0.1567    4.9561 C   0  0  0  0  0  0  0  0  0  0  0  0
    3.4515   -0.1533    3.7554 C   0  0  0  0  0  0  0  0  0  0  0  0
    0.6944   -0.4268    1.1981 C   0  0  0  0  0  0  0  0  0  0  0  0
   -0.7222   -0.6970    1.0569 C   0  0  0  0  0  0  0  0  0  0  0  0
   -1.5411    0.1687    0.2923 C   0  0  0  0  0  0  0  0  0  0  0  0
   -0.9776    1.2499   -0.3481 O   0  0  0  0  0  0  0  0  0  0  0  0
   -2.9386    0.0446    0.2000 C   0  0  0  0  0  0  0  0  0  0  0  0
   -3.7570    0.9935   -0.5721 C   0  0  0  0  0  0  0  0  0  0  0  0
   -4.2142    0.6389   -1.8545 C   0  0  0  0  0  0  0  0  0  0  0  0
   -4.9768    1.5253   -2.6282 C   0  0  0  0  0  0  0  0  0  0  0  0
   -5.4836    1.1094   -3.9777 C   0  0  0  0  0  0  0  0  0  0  0  0
   -5.3151    2.7739   -2.0965 C   0  0  0  0  0  0  0  0  0  0  0  0
   -4.8751    3.1430   -0.8246 C   0  0  0  0  0  0  0  0  0  0  0  0
   -4.0874    2.2657   -0.0754 C   0  0  0  0  0  0  0  0  0  0  0  0
   -3.6878    2.5999    1.1948 O   0  0  0  0  0  0  0  0  0  0  0  0
   -2.8461    3.7576    1.2069 C   0  0  0  0  0  0  0  0  0  0  0  0
   -2.0078    3.7109    2.4715 C   0  0  0  0  0  0  0  0  0  0  0  0
   -3.5498   -1.0178    0.8657 C   0  0  0  0  0  0  0  0  0  0  0  0
   -2.7999   -1.9551    1.5805 C   0  0  0  0  0  0  0  0  0  0  0  0
   -1.3873   -1.8239    1.6665 C   0  0  0  0  0  0  0  0  0  0  0  0
   -0.7022   -2.8762    2.3264 C   0  0  0  0  0  0  0  0  0  0  0  0
   -1.3678   -3.9502    2.9242 C   0  0  0  0  0  0  0  0  0  0  0  0
   -2.7503   -4.0223    2.8685 C   0  0  0  0  0  0  0  0  0  0  0  0
   -3.4603   -3.0338    2.1937 C   0  0  0  0  0  0  0  0  0  0  0  0
   -1.3805    1.1670   -3.2149 H   0  0  0  0  0  0  0  0  0  0  0  0
    2.3761   -2.6546   -1.9870 H   0  0  0  0  0  0  0  0  0  0  0  0
    3.6817   -3.7336   -2.5513 H   0  0  0  0  0  0  0  0  0  0  0  0
    2.3519   -3.8440    0.2072 H   0  0  0  0  0  0  0  0  0  0  0  0
    3.6262   -4.9213   -0.3526 H   0  0  0  0  0  0  0  0  0  0  0  0
    2.0292   -4.9638   -1.1381 H   0  0  0  0  0  0  0  0  0  0  0  0
    5.6612   -2.0469   -3.1756 H   0  0  0  0  0  0  0  0  0  0  0  0
    5.9450    0.1147   -4.3390 H   0  0  0  0  0  0  0  0  0  0  0  0
    5.7953    2.5783   -4.2079 H   0  0  0  0  0  0  0  0  0  0  0  0
    4.0239    2.6579   -4.3663 H   0  0  0  0  0  0  0  0  0  0  0  0
    4.8420    3.3611   -2.9480 H   0  0  0  0  0  0  0  0  0  0  0  0
    3.4192    2.0177   -1.4144 H   0  0  0  0  0  0  0  0  0  0  0  0
    4.6134   -0.0975    1.3833 H   0  0  0  0  0  0  0  0  0  0  0  0
   -0.3988   -0.3096    3.7489 H   0  0  0  0  0  0  0  0  0  0  0  0
    0.7994   -0.1962    5.8638 H   0  0  0  0  0  0  0  0  0  0  0  0
    3.2801   -0.0971    5.9011 H   0  0  0  0  0  0  0  0  0  0  0  0
    4.5373   -0.0842    3.7903 H   0  0  0  0  0  0  0  0  0  0  0  0
   -3.9617   -0.3437   -2.2533 H   0  0  0  0  0  0  0  0  0  0  0  0
   -5.6128    1.9782   -4.6316 H   0  0  0  0  0  0  0  0  0  0  0  0
   -6.4454    0.5978   -3.8749 H   0  0  0  0  0  0  0  0  0  0  0  0
   -4.7738    0.4359   -4.4696 H   0  0  0  0  0  0  0  0  0  0  0  0
   -5.9351    3.4641   -2.6645 H   0  0  0  0  0  0  0  0  0  0  0  0
   -5.1671    4.1052   -0.4150 H   0  0  0  0  0  0  0  0  0  0  0  0
   -3.4674    4.6600    1.2134 H   0  0  0  0  0  0  0  0  0  0  0  0
   -2.1809    3.7820    0.3345 H   0  0  0  0  0  0  0  0  0  0  0  0
   -2.6489    3.6812    3.3587 H   0  0  0  0  0  0  0  0  0  0  0  0
   -1.3923    2.8053    2.4926 H   0  0  0  0  0  0  0  0  0  0  0  0
   -1.3529    4.5841    2.5376 H   0  0  0  0  0  0  0  0  0  0  0  0
   -4.6328   -1.1181    0.8081 H   0  0  0  0  0  0  0  0  0  0  0  0
    0.3854   -2.8814    2.3754 H   0  0  0  0  0  0  0  0  0  0  0  0
   -0.7976   -4.7271    3.4264 H   0  0  0  0  0  0  0  0  0  0  0  0
   -3.2754   -4.8530    3.3314 H   0  0  0  0  0  0  0  0  0  0  0  0
   -4.5440   -3.1200    2.1382 H   0  0  0  0  0  0  0  0  0  0  0  0
  1  2  2  0  0  0  0
  2  4  1  0  0  0  0
  2 27  1  0  0  0  0
  3  2  1  0  0  0  0
  4  5  1  0  0  0  0
  5  6  2  0  0  0  0
  5 24  1  0  0  0  0
  6 17  1  0  0  0  0
  7  6  1  0  0  0  0
  8  7  1  0  0  0  0
  8  9  1  0  0  0  0
 10  9  1  0  0  0  0
 10 11  1  0  0  0  0
 11 50  1  0  0  0  0
 11 49  1  0  0  0  0
 12  8  2  0  0  0  0
 13 14  2  0  0  0  0
 13 12  1  0  0  0  0
 14 16  1  0  0  0  0
 15 56  1  0  0  0  0
 15 14  1  0  0  0  0
 16 57  1  0  0  0  0
 16  7  2  0  0  0  0
 17 58  1  0  0  0  0
 17 18  2  0  0  0  0
 18 23  1  0  0  0  0
 19 18  1  0  0  0  0
 19 20  1  0  0  0  0
 20 59  1  0  0  0  0
 20 21  2  0  0  0  0
 21 22  1  0  0  0  0
 21 60  1  0  0  0  0
 22 61  1  0  0  0  0
 23 62  1  0  0  0  0
 23 22  2  0  0  0  0
 24 19  2  0  0  0  0
 25 24  1  0  0  0  0
 25 41  2  0  0  0  0
 26 25  1  0  0  0  0
 27 26  1  0  0  0  0
 28 26  2  0  0  0  0
 28 39  1  0  0  0  0
 29 35  1  0  0  0  0
 29 28  1  0  0  0  0
 30 29  2  0  0  0  0
 31 33  2  0  0  0  0
 31 30  1  0  0  0  0
 32 65  1  0  0  0  0
 32 31  1  0  0  0  0
 33 34  1  0  0  0  0
 34 68  1  0  0  0  0
 34 35  2  0  0  0  0
 35 36  1  0  0  0  0
 36 37  1  0  0  0  0
 37 69  1  0  0  0  0
 37 38  1  0  0  0  0
 38 72  1  0  0  0  0
 38 73  1  0  0  0  0
 38 71  1  0  0  0  0
 39 40  2  0  0  0  0
 40 41  1  0  0  0  0
 40 45  1  0  0  0  0
 41 42  1  0  0  0  0
 42 75  1  0  0  0  0
 42 43  2  0  0  0  0
 43 76  1  0  0  0  0
 44 43  1  0  0  0  0
 44 77  1  0  0  0  0
 45 44  2  0  0  0  0
 46  3  1  0  0  0  0
 47 10  1  0  0  0  0
 48 10  1  0  0  0  0
 51 11  1  0  0  0  0
 52 12  1  0  0  0  0
 53 13  1  0  0  0  0
 54 15  1  0  0  0  0
 55 15  1  0  0  0  0
 63 30  1  0  0  0  0
 64 32  1  0  0  0  0
 66 32  1  0  0  0  0
 67 33  1  0  0  0  0
 70 37  1  0  0  0  0
 74 39  1  0  0  0  0
 78 45  1  0  0  0  0
M  END
$$$$
