O=P1(O)OC2=C(C3=CC=C(C(C)(C)C)C=C3)C=C4C(C=CC=C4)=C2C5=C(O1)C(C6=CC=C(C(C)(C)C)C=C6)=CC7=C5C=CC=C7
 OpenBabel09032010373D

 82 88  0  0  0  0  0  0  0  0999 V2000
    0.5426    1.5592    1.3795 O   0  0  0  0  0  0  0  0  0  0  0  0
   -0.0324    0.6657    0.3253 P   0  0  0  0  0  0  0  0  0  0  0  0
   -0.8917    1.4974   -0.7515 O   0  0  0  0  0  0  0  0  0  0  0  0
    1.0167   -0.1557   -0.5807 O   0  0  0  0  0  0  0  0  0  0  0  0
    1.5541   -1.3049   -0.0415 C   0  0  0  0  0  0  0  0  0  0  0  0
    2.9260   -1.2867    0.2618 C   0  0  0  0  0  0  0  0  0  0  0  0
    3.7716   -0.1125    0.0150 C   0  0  0  0  0  0  0  0  0  0  0  0
    4.5687   -0.0347   -1.1314 C   0  0  0  0  0  0  0  0  0  0  0  0
    5.3797    1.0815   -1.3668 C   0  0  0  0  0  0  0  0  0  0  0  0
    5.4254    2.1619   -0.4660 C   0  0  0  0  0  0  0  0  0  0  0  0
    6.3228    3.3763   -0.7595 C   0  0  0  0  0  0  0  0  0  0  0  0
    7.7940    2.9207   -0.8689 C   0  0  0  0  0  0  0  0  0  0  0  0
    6.2644    4.4735    0.3274 C   0  0  0  0  0  0  0  0  0  0  0  0
    5.8928    4.0292   -2.0909 C   0  0  0  0  0  0  0  0  0  0  0  0
    4.6228    2.0712    0.6817 C   0  0  0  0  0  0  0  0  0  0  0  0
    3.8130    0.9528    0.9192 C   0  0  0  0  0  0  0  0  0  0  0  0
    3.4942   -2.4430    0.7987 C   0  0  0  0  0  0  0  0  0  0  0  0
    2.7248   -3.5803    1.0588 C   0  0  0  0  0  0  0  0  0  0  0  0
    1.3413   -3.5946    0.7364 C   0  0  0  0  0  0  0  0  0  0  0  0
    0.6215   -4.7562    1.1160 C   0  0  0  0  0  0  0  0  0  0  0  0
    1.2357   -5.8595    1.7150 C   0  0  0  0  0  0  0  0  0  0  0  0
    2.5963   -5.8344    1.9746 C   0  0  0  0  0  0  0  0  0  0  0  0
    3.3339   -4.6984    1.6540 C   0  0  0  0  0  0  0  0  0  0  0  0
    0.7307   -2.4505    0.1052 C   0  0  0  0  0  0  0  0  0  0  0  0
   -0.6313   -2.4324   -0.3923 C   0  0  0  0  0  0  0  0  0  0  0  0
   -1.5249   -1.4101    0.0129 C   0  0  0  0  0  0  0  0  0  0  0  0
   -1.0809   -0.4282    0.8707 O   0  0  0  0  0  0  0  0  0  0  0  0
   -2.8809   -1.3550   -0.3574 C   0  0  0  0  0  0  0  0  0  0  0  0
   -3.7731   -0.2711    0.0839 C   0  0  0  0  0  0  0  0  0  0  0  0
   -4.1189   -0.1139    1.4295 C   0  0  0  0  0  0  0  0  0  0  0  0
   -4.9562    0.9307    1.8393 C   0  0  0  0  0  0  0  0  0  0  0  0
   -5.4829    1.8579    0.9208 C   0  0  0  0  0  0  0  0  0  0  0  0
   -6.4008    2.9923    1.4085 C   0  0  0  0  0  0  0  0  0  0  0  0
   -5.6430    3.8711    2.4271 C   0  0  0  0  0  0  0  0  0  0  0  0
   -6.8950    3.9248    0.2795 C   0  0  0  0  0  0  0  0  0  0  0  0
   -7.6520    2.3930    2.0861 C   0  0  0  0  0  0  0  0  0  0  0  0
   -5.1332    1.6906   -0.4276 C   0  0  0  0  0  0  0  0  0  0  0  0
   -4.2941    0.6459   -0.8375 C   0  0  0  0  0  0  0  0  0  0  0  0
   -3.3686   -2.3618   -1.1916 C   0  0  0  0  0  0  0  0  0  0  0  0
   -2.5356   -3.3722   -1.6803 C   0  0  0  0  0  0  0  0  0  0  0  0
   -1.1631   -3.4083   -1.3129 C   0  0  0  0  0  0  0  0  0  0  0  0
   -0.3746   -4.4040   -1.9451 C   0  0  0  0  0  0  0  0  0  0  0  0
   -0.9138   -5.3475   -2.8240 C   0  0  0  0  0  0  0  0  0  0  0  0
   -2.2663   -5.3180   -3.1211 C   0  0  0  0  0  0  0  0  0  0  0  0
   -3.0695   -4.3311   -2.5579 C   0  0  0  0  0  0  0  0  0  0  0  0
   -1.4507    2.1544   -0.2980 H   0  0  0  0  0  0  0  0  0  0  0  0
    4.5584   -0.8438   -1.8587 H   0  0  0  0  0  0  0  0  0  0  0  0
    5.9753    1.0936   -2.2768 H   0  0  0  0  0  0  0  0  0  0  0  0
    8.4601    3.7739   -1.0433 H   0  0  0  0  0  0  0  0  0  0  0  0
    7.9504    2.2188   -1.6953 H   0  0  0  0  0  0  0  0  0  0  0  0
    8.1225    2.4237    0.0516 H   0  0  0  0  0  0  0  0  0  0  0  0
    6.5894    4.0929    1.3028 H   0  0  0  0  0  0  0  0  0  0  0  0
    6.9209    5.3149    0.0751 H   0  0  0  0  0  0  0  0  0  0  0  0
    5.2516    4.8780    0.4387 H   0  0  0  0  0  0  0  0  0  0  0  0
    4.8412    4.3380   -2.0573 H   0  0  0  0  0  0  0  0  0  0  0  0
    6.0087    3.3495   -2.9422 H   0  0  0  0  0  0  0  0  0  0  0  0
    6.4951    4.9193   -2.3074 H   0  0  0  0  0  0  0  0  0  0  0  0
    4.5963    2.8654    1.4226 H   0  0  0  0  0  0  0  0  0  0  0  0
    3.2023    0.9289    1.8205 H   0  0  0  0  0  0  0  0  0  0  0  0
    4.5567   -2.4391    1.0414 H   0  0  0  0  0  0  0  0  0  0  0  0
   -0.4542   -4.8144    0.9583 H   0  0  0  0  0  0  0  0  0  0  0  0
    0.6431   -6.7309    1.9808 H   0  0  0  0  0  0  0  0  0  0  0  0
    3.0817   -6.6873    2.4407 H   0  0  0  0  0  0  0  0  0  0  0  0
    4.3971   -4.6875    1.8877 H   0  0  0  0  0  0  0  0  0  0  0  0
   -3.7362   -0.8072    2.1764 H   0  0  0  0  0  0  0  0  0  0  0  0
   -5.1917    1.0061    2.8990 H   0  0  0  0  0  0  0  0  0  0  0  0
   -4.7301    4.2885    1.9858 H   0  0  0  0  0  0  0  0  0  0  0  0
   -5.3492    3.3101    3.3210 H   0  0  0  0  0  0  0  0  0  0  0  0
   -6.2637    4.7094    2.7648 H   0  0  0  0  0  0  0  0  0  0  0  0
   -7.4773    3.3769   -0.4705 H   0  0  0  0  0  0  0  0  0  0  0  0
   -6.0597    4.4189   -0.2304 H   0  0  0  0  0  0  0  0  0  0  0  0
   -7.5434    4.7156    0.6756 H   0  0  0  0  0  0  0  0  0  0  0  0
   -7.4000    1.8012    2.9729 H   0  0  0  0  0  0  0  0  0  0  0  0
   -8.3406    3.1813    2.4124 H   0  0  0  0  0  0  0  0  0  0  0  0
   -8.1978    1.7374    1.3972 H   0  0  0  0  0  0  0  0  0  0  0  0
   -5.5008    2.3633   -1.1977 H   0  0  0  0  0  0  0  0  0  0  0  0
   -4.0381    0.5607   -1.8927 H   0  0  0  0  0  0  0  0  0  0  0  0
   -4.4188   -2.3397   -1.4817 H   0  0  0  0  0  0  0  0  0  0  0  0
    0.6987   -4.4521   -1.7701 H   0  0  0  0  0  0  0  0  0  0  0  0
   -0.2688   -6.0960   -3.2766 H   0  0  0  0  0  0  0  0  0  0  0  0
   -2.6938   -6.0465   -3.8042 H   0  0  0  0  0  0  0  0  0  0  0  0
   -4.1245   -4.3073   -2.8255 H   0  0  0  0  0  0  0  0  0  0  0  0
  2 27  1  0  0  0  0
  2  1  2  0  0  0  0
  3 46  1  0  0  0  0
  3  2  1  0  0  0  0
  4  5  1  0  0  0  0
  4  2  1  0  0  0  0
  5 24  2  0  0  0  0
  5  6  1  0  0  0  0
  6 17  2  0  0  0  0
  7  6  1  0  0  0  0
  7 16  2  0  0  0  0
  8  7  1  0  0  0  0
  9  8  2  0  0  0  0
  9 10  1  0  0  0  0
 10 15  2  0  0  0  0
 11 10  1  0  0  0  0
 11 13  1  0  0  0  0
 12 11  1  0  0  0  0
 12 51  1  0  0  0  0
 13 54  1  0  0  0  0
 13 52  1  0  0  0  0
 14 55  1  0  0  0  0
 14 11  1  0  0  0  0
 15 16  1  0  0  0  0
 15 58  1  0  0  0  0
 16 59  1  0  0  0  0
 17 60  1  0  0  0  0
 17 18  1  0  0  0  0
 18 23  1  0  0  0  0
 19 18  2  0  0  0  0
 19 20  1  0  0  0  0
 20 21  2  0  0  0  0
 21 22  1  0  0  0  0
 21 62  1  0  0  0  0
 22 63  1  0  0  0  0
 23 64  1  0  0  0  0
 23 22  2  0  0  0  0
 24 19  1  0  0  0  0
 25 26  2  0  0  0  0
 25 24  1  0  0  0  0
 26 27  1  0  0  0  0
 28 26  1  0  0  0  0
 28 29  1  0  0  0  0
 29 30  2  0  0  0  0
 30 31  1  0  0  0  0
 30 65  1  0  0  0  0
 31 66  1  0  0  0  0
 32 33  1  0  0  0  0
 32 31  2  0  0  0  0
 33 36  1  0  0  0  0
 33 34  1  0  0  0  0
 34 69  1  0  0  0  0
 34 68  1  0  0  0  0
 35 72  1  0  0  0  0
 35 33  1  0  0  0  0
 36 74  1  0  0  0  0
 36 73  1  0  0  0  0
 37 32  1  0  0  0  0
 38 37  2  0  0  0  0
 38 29  1  0  0  0  0
 39 28  2  0  0  0  0
 40 41  1  0  0  0  0
 40 39  1  0  0  0  0
 41 25  1  0  0  0  0
 42 79  1  0  0  0  0
 42 41  2  0  0  0  0
 43 42  1  0  0  0  0
 44 43  2  0  0  0  0
 44 45  1  0  0  0  0
 45 40  2  0  0  0  0
 47  8  1  0  0  0  0
 48  9  1  0  0  0  0
 49 12  1  0  0  0  0
 50 12  1  0  0  0  0
 53 13  1  0  0  0  0
 56 14  1  0  0  0  0
 57 14  1  0  0  0  0
 61 20  1  0  0  0  0
 67 34  1  0  0  0  0
 70 35  1  0  0  0  0
 71 35  1  0  0  0  0
 75 36  1  0  0  0  0
 76 37  1  0  0  0  0
 77 38  1  0  0  0  0
 78 39  1  0  0  0  0
 80 43  1  0  0  0  0
 81 44  1  0  0  0  0
 82 45  1  0  0  0  0
M  END
$$$$
