O=P1(O)OC2=C(CC3=CC=C(OC)C=C3)C=C4C(CCCC4)=C2C5=C(O1)C(CC6=CC=C(OC)C=C6)=CC7=C5CCCC7
 OpenBabel09032010373D

 80 86  0  0  0  0  0  0  0  0999 V2000
   -0.3360    1.2784   -3.9915 O   0  0  0  0  0  0  0  0  0  0  0  0
    0.2361    1.1563   -2.6123 P   0  0  0  0  0  0  0  0  0  0  0  0
    1.1474    2.4432   -2.2885 O   0  0  0  0  0  0  0  0  0  0  0  0
    1.2271   -0.0940   -2.3903 O   0  0  0  0  0  0  0  0  0  0  0  0
    1.6120   -0.4290   -1.1131 C   0  0  0  0  0  0  0  0  0  0  0  0
    2.9865   -0.3677   -0.8276 C   0  0  0  0  0  0  0  0  0  0  0  0
    4.0062    0.0157   -1.8827 C   0  0  0  0  0  0  0  0  0  0  0  0
    5.0346    1.0364   -1.4401 C   0  0  0  0  0  0  0  0  0  0  0  0
    6.3991    0.7173   -1.4302 C   0  0  0  0  0  0  0  0  0  0  0  0
    7.3523    1.6617   -1.0309 C   0  0  0  0  0  0  0  0  0  0  0  0
    6.9537    2.9395   -0.6393 C   0  0  0  0  0  0  0  0  0  0  0  0
    7.7788    3.9503   -0.2288 O   0  0  0  0  0  0  0  0  0  0  0  0
    9.1728    3.6718   -0.2043 C   0  0  0  0  0  0  0  0  0  0  0  0
    5.5955    3.2626   -0.6521 C   0  0  0  0  0  0  0  0  0  0  0  0
    4.6418    2.3229   -1.0507 C   0  0  0  0  0  0  0  0  0  0  0  0
    3.4081   -0.7319    0.4533 C   0  0  0  0  0  0  0  0  0  0  0  0
    2.4861   -1.0596    1.4539 C   0  0  0  0  0  0  0  0  0  0  0  0
    1.1046   -1.1169    1.1486 C   0  0  0  0  0  0  0  0  0  0  0  0
    0.1155   -1.2158    2.3053 C   0  0  0  0  0  0  0  0  0  0  0  0
    0.6857   -1.9027    3.5429 C   0  0  0  0  0  0  0  0  0  0  0  0
    1.9964   -1.2458    3.9420 C   0  0  0  0  0  0  0  0  0  0  0  0
    3.0227   -1.3968    2.8266 C   0  0  0  0  0  0  0  0  0  0  0  0
    0.6403   -0.8781   -0.1828 C   0  0  0  0  0  0  0  0  0  0  0  0
   -0.7257   -1.0876   -0.5881 C   0  0  0  0  0  0  0  0  0  0  0  0
   -1.4769   -0.0321   -1.1566 C   0  0  0  0  0  0  0  0  0  0  0  0
   -0.8452    1.1598   -1.4166 O   0  0  0  0  0  0  0  0  0  0  0  0
   -2.8451   -0.1252   -1.4492 C   0  0  0  0  0  0  0  0  0  0  0  0
   -3.6409    1.0413   -1.9955 C   0  0  0  0  0  0  0  0  0  0  0  0
   -4.7021    1.5548   -1.0456 C   0  0  0  0  0  0  0  0  0  0  0  0
   -4.3410    2.2031    0.1418 C   0  0  0  0  0  0  0  0  0  0  0  0
   -5.3234    2.6694    1.0194 C   0  0  0  0  0  0  0  0  0  0  0  0
   -6.6790    2.4988    0.7307 C   0  0  0  0  0  0  0  0  0  0  0  0
   -7.5334    2.9992    1.6747 O   0  0  0  0  0  0  0  0  0  0  0  0
   -8.9256    2.8233    1.4428 C   0  0  0  0  0  0  0  0  0  0  0  0
   -7.0456    1.8575   -0.4521 C   0  0  0  0  0  0  0  0  0  0  0  0
   -6.0636    1.3894   -1.3341 C   0  0  0  0  0  0  0  0  0  0  0  0
   -3.4812   -1.3498   -1.2322 C   0  0  0  0  0  0  0  0  0  0  0  0
   -2.7743   -2.4637   -0.7617 C   0  0  0  0  0  0  0  0  0  0  0  0
   -1.3946   -2.3487   -0.4712 C   0  0  0  0  0  0  0  0  0  0  0  0
   -0.6107   -3.5994   -0.0902 C   0  0  0  0  0  0  0  0  0  0  0  0
   -1.3142   -4.9070   -0.4490 C   0  0  0  0  0  0  0  0  0  0  0  0
   -2.7470   -4.8742    0.0551 C   0  0  0  0  0  0  0  0  0  0  0  0
   -3.5216   -3.7740   -0.6596 C   0  0  0  0  0  0  0  0  0  0  0  0
    0.9583    3.1430   -2.9405 H   0  0  0  0  0  0  0  0  0  0  0  0
    3.5234    0.4239   -2.7786 H   0  0  0  0  0  0  0  0  0  0  0  0
    4.5043   -0.9068   -2.2089 H   0  0  0  0  0  0  0  0  0  0  0  0
    6.7330   -0.2727   -1.7333 H   0  0  0  0  0  0  0  0  0  0  0  0
    8.3955    1.3656   -1.0389 H   0  0  0  0  0  0  0  0  0  0  0  0
    9.4022    2.8667    0.5017 H   0  0  0  0  0  0  0  0  0  0  0  0
    9.5467    3.4382   -1.2067 H   0  0  0  0  0  0  0  0  0  0  0  0
    9.6878    4.5735    0.1409 H   0  0  0  0  0  0  0  0  0  0  0  0
    5.2749    4.2558   -0.3479 H   0  0  0  0  0  0  0  0  0  0  0  0
    3.5892    2.5995   -1.0494 H   0  0  0  0  0  0  0  0  0  0  0  0
    4.4707   -0.7206    0.6930 H   0  0  0  0  0  0  0  0  0  0  0  0
   -0.1735   -0.1893    2.5685 H   0  0  0  0  0  0  0  0  0  0  0  0
   -0.8062   -1.7312    2.0328 H   0  0  0  0  0  0  0  0  0  0  0  0
   -0.0334   -1.8313    4.3667 H   0  0  0  0  0  0  0  0  0  0  0  0
    0.8464   -2.9694    3.3432 H   0  0  0  0  0  0  0  0  0  0  0  0
    1.8266   -0.1820    4.1513 H   0  0  0  0  0  0  0  0  0  0  0  0
    2.3822   -1.6962    4.8633 H   0  0  0  0  0  0  0  0  0  0  0  0
    3.3800   -2.4341    2.8002 H   0  0  0  0  0  0  0  0  0  0  0  0
    3.8845   -0.7596    3.0596 H   0  0  0  0  0  0  0  0  0  0  0  0
   -4.1000    0.7259   -2.9421 H   0  0  0  0  0  0  0  0  0  0  0  0
   -2.9920    1.8827   -2.2666 H   0  0  0  0  0  0  0  0  0  0  0  0
   -3.2922    2.3444    0.3943 H   0  0  0  0  0  0  0  0  0  0  0  0
   -5.0276    3.1678    1.9392 H   0  0  0  0  0  0  0  0  0  0  0  0
   -9.4635    3.2623    2.2886 H   0  0  0  0  0  0  0  0  0  0  0  0
   -9.2434    3.3491    0.5365 H   0  0  0  0  0  0  0  0  0  0  0  0
   -9.1871    1.7610    1.3965 H   0  0  0  0  0  0  0  0  0  0  0  0
   -8.0853    1.7047   -0.7205 H   0  0  0  0  0  0  0  0  0  0  0  0
   -6.3732    0.8914   -2.2505 H   0  0  0  0  0  0  0  0  0  0  0  0
   -4.5420   -1.4491   -1.4592 H   0  0  0  0  0  0  0  0  0  0  0  0
   -0.4300   -3.6010    0.9886 H   0  0  0  0  0  0  0  0  0  0  0  0
    0.3624   -3.5969   -0.5954 H   0  0  0  0  0  0  0  0  0  0  0  0
   -0.7747   -5.7492   -0.0012 H   0  0  0  0  0  0  0  0  0  0  0  0
   -1.3027   -5.0573   -1.5359 H   0  0  0  0  0  0  0  0  0  0  0  0
   -2.7549   -4.6966    1.1380 H   0  0  0  0  0  0  0  0  0  0  0  0
   -3.2346   -5.8404   -0.1154 H   0  0  0  0  0  0  0  0  0  0  0  0
   -4.4734   -3.6170   -0.1379 H   0  0  0  0  0  0  0  0  0  0  0  0
   -3.7549   -4.1080   -1.6789 H   0  0  0  0  0  0  0  0  0  0  0  0
  1  2  2  0  0  0  0
  2  4  1  0  0  0  0
  2  3  1  0  0  0  0
  2 26  1  0  0  0  0
  4  5  1  0  0  0  0
  5  6  2  0  0  0  0
  5 23  1  0  0  0  0
  6 16  1  0  0  0  0
  7  8  1  0  0  0  0
  7  6  1  0  0  0  0
  8  9  2  0  0  0  0
  8 15  1  0  0  0  0
  9 10  1  0  0  0  0
 10 11  2  0  0  0  0
 11 12  1  0  0  0  0
 12 13  1  0  0  0  0
 13 51  1  0  0  0  0
 13 49  1  0  0  0  0
 14 11  1  0  0  0  0
 14 52  1  0  0  0  0
 15 53  1  0  0  0  0
 15 14  2  0  0  0  0
 16 54  1  0  0  0  0
 16 17  2  0  0  0  0
 17 22  1  0  0  0  0
 18 17  1  0  0  0  0
 18 19  1  0  0  0  0
 19 55  1  0  0  0  0
 19 20  1  0  0  0  0
 20 21  1  0  0  0  0
 20 57  1  0  0  0  0
 21 59  1  0  0  0  0
 21 60  1  0  0  0  0
 22 62  1  0  0  0  0
 22 21  1  0  0  0  0
 23 18  2  0  0  0  0
 24 39  1  0  0  0  0
 24 23  1  0  0  0  0
 25 24  2  0  0  0  0
 26 25  1  0  0  0  0
 27 37  2  0  0  0  0
 27 25  1  0  0  0  0
 28 27  1  0  0  0  0
 28 29  1  0  0  0  0
 29 30  1  0  0  0  0
 30 65  1  0  0  0  0
 30 31  2  0  0  0  0
 31 66  1  0  0  0  0
 32 31  1  0  0  0  0
 32 33  1  0  0  0  0
 34 33  1  0  0  0  0
 34 67  1  0  0  0  0
 35 32  2  0  0  0  0
 36 29  2  0  0  0  0
 36 35  1  0  0  0  0
 37 38  1  0  0  0  0
 38 43  1  0  0  0  0
 38 39  2  0  0  0  0
 39 40  1  0  0  0  0
 40 73  1  0  0  0  0
 41 40  1  0  0  0  0
 41 75  1  0  0  0  0
 41 42  1  0  0  0  0
 42 77  1  0  0  0  0
 43 79  1  0  0  0  0
 43 42  1  0  0  0  0
 44  3  1  0  0  0  0
 45  7  1  0  0  0  0
 46  7  1  0  0  0  0
 47  9  1  0  0  0  0
 48 10  1  0  0  0  0
 50 13  1  0  0  0  0
 56 19  1  0  0  0  0
 58 20  1  0  0  0  0
 61 22  1  0  0  0  0
 63 28  1  0  0  0  0
 64 28  1  0  0  0  0
 68 34  1  0  0  0  0
 69 34  1  0  0  0  0
 70 35  1  0  0  0  0
 71 36  1  0  0  0  0
 72 37  1  0  0  0  0
 74 40  1  0  0  0  0
 76 41  1  0  0  0  0
 78 42  1  0  0  0  0
 80 43  1  0  0  0  0
M  END
$$$$
