O=P1(O)OC2=C(C3=CC=C(C(C)(C)C)C=C3)C=C4C(C=CC=C4)=C2C5=C(O1)C(C6=CC=C(C(C)(C)C)C=C6)=CC7=C5C=CC=C7
 OpenBabel09032010373D

 82 88  0  0  0  0  0  0  0  0999 V2000
    0.5244    1.5940    1.3235 O   0  0  0  0  0  0  0  0  0  0  0  0
   -0.0331    0.6710    0.2854 P   0  0  0  0  0  0  0  0  0  0  0  0
   -0.8822    1.4692   -0.8241 O   0  0  0  0  0  0  0  0  0  0  0  0
    1.0307   -0.1705   -0.5842 O   0  0  0  0  0  0  0  0  0  0  0  0
    1.5613   -1.3053   -0.0091 C   0  0  0  0  0  0  0  0  0  0  0  0
    2.9275   -1.2755    0.3179 C   0  0  0  0  0  0  0  0  0  0  0  0
    3.7719   -0.1021    0.0654 C   0  0  0  0  0  0  0  0  0  0  0  0
    4.5750   -0.0318   -1.0771 C   0  0  0  0  0  0  0  0  0  0  0  0
    5.3852    1.0842   -1.3164 C   0  0  0  0  0  0  0  0  0  0  0  0
    5.4240    2.1715   -0.4234 C   0  0  0  0  0  0  0  0  0  0  0  0
    6.3210    3.3852   -0.7210 C   0  0  0  0  0  0  0  0  0  0  0  0
    6.2548    4.4904    0.3572 C   0  0  0  0  0  0  0  0  0  0  0  0
    7.7935    2.9313   -0.8190 C   0  0  0  0  0  0  0  0  0  0  0  0
    5.8973    4.0273   -2.0597 C   0  0  0  0  0  0  0  0  0  0  0  0
    4.6149    2.0883    0.7203 C   0  0  0  0  0  0  0  0  0  0  0  0
    3.8056    0.9705    0.9616 C   0  0  0  0  0  0  0  0  0  0  0  0
    3.4905   -2.4181    0.8885 C   0  0  0  0  0  0  0  0  0  0  0  0
    2.7205   -3.5524    1.1597 C   0  0  0  0  0  0  0  0  0  0  0  0
    1.3422   -3.5779    0.8162 C   0  0  0  0  0  0  0  0  0  0  0  0
    0.6200   -4.7331    1.2106 C   0  0  0  0  0  0  0  0  0  0  0  0
    1.2281   -5.8215    1.8424 C   0  0  0  0  0  0  0  0  0  0  0  0
    2.5846   -5.7867    2.1215 C   0  0  0  0  0  0  0  0  0  0  0  0
    3.3236   -4.6555    1.7879 C   0  0  0  0  0  0  0  0  0  0  0  0
    0.7382   -2.4495    0.1506 C   0  0  0  0  0  0  0  0  0  0  0  0
   -0.6174   -2.4451   -0.3647 C   0  0  0  0  0  0  0  0  0  0  0  0
   -1.5177   -1.4154    0.0064 C   0  0  0  0  0  0  0  0  0  0  0  0
   -1.0836   -0.4133    0.8459 O   0  0  0  0  0  0  0  0  0  0  0  0
   -2.8703   -1.3713   -0.3792 C   0  0  0  0  0  0  0  0  0  0  0  0
   -3.7715   -0.2806    0.0302 C   0  0  0  0  0  0  0  0  0  0  0  0
   -4.3401    0.5758   -0.9214 C   0  0  0  0  0  0  0  0  0  0  0  0
   -5.1863    1.6263   -0.5413 C   0  0  0  0  0  0  0  0  0  0  0  0
   -5.4982    1.8597    0.8064 C   0  0  0  0  0  0  0  0  0  0  0  0
   -6.4232    3.0019    1.2617 C   0  0  0  0  0  0  0  0  0  0  0  0
   -7.6414    2.4172    2.0087 C   0  0  0  0  0  0  0  0  0  0  0  0
   -5.6526    3.9475    2.2082 C   0  0  0  0  0  0  0  0  0  0  0  0
   -6.9695    3.8635    0.1008 C   0  0  0  0  0  0  0  0  0  0  0  0
   -4.9257    0.9930    1.7556 C   0  0  0  0  0  0  0  0  0  0  0  0
   -4.0800   -0.0560    1.3758 C   0  0  0  0  0  0  0  0  0  0  0  0
   -3.3458   -2.3995   -1.1945 C   0  0  0  0  0  0  0  0  0  0  0  0
   -2.5053   -3.4194   -1.6502 C   0  0  0  0  0  0  0  0  0  0  0  0
   -1.1369   -3.4435   -1.2677 C   0  0  0  0  0  0  0  0  0  0  0  0
   -0.3393   -4.4521   -1.8671 C   0  0  0  0  0  0  0  0  0  0  0  0
   -0.8672   -5.4188   -2.7274 C   0  0  0  0  0  0  0  0  0  0  0  0
   -2.2165   -5.4002   -3.0390 C   0  0  0  0  0  0  0  0  0  0  0  0
   -3.0278   -4.4013   -2.5093 C   0  0  0  0  0  0  0  0  0  0  0  0
   -1.4536    2.1326   -0.3961 H   0  0  0  0  0  0  0  0  0  0  0  0
    4.5703   -0.8465   -1.7982 H   0  0  0  0  0  0  0  0  0  0  0  0
    5.9857    1.0906   -2.2233 H   0  0  0  0  0  0  0  0  0  0  0  0
    6.9114    5.3309    0.1022 H   0  0  0  0  0  0  0  0  0  0  0  0
    5.2408    4.8941    0.4597 H   0  0  0  0  0  0  0  0  0  0  0  0
    6.5749    4.1176    1.3372 H   0  0  0  0  0  0  0  0  0  0  0  0
    7.9557    2.2235   -1.6392 H   0  0  0  0  0  0  0  0  0  0  0  0
    8.4591    3.7843   -0.9961 H   0  0  0  0  0  0  0  0  0  0  0  0
    8.1178    2.4418    0.1071 H   0  0  0  0  0  0  0  0  0  0  0  0
    6.0191    3.3414   -2.9053 H   0  0  0  0  0  0  0  0  0  0  0  0
    4.8450    4.3345   -2.0343 H   0  0  0  0  0  0  0  0  0  0  0  0
    6.4993    4.9168   -2.2795 H   0  0  0  0  0  0  0  0  0  0  0  0
    4.5824    2.8884    1.4546 H   0  0  0  0  0  0  0  0  0  0  0  0
    3.1886    0.9527    1.8587 H   0  0  0  0  0  0  0  0  0  0  0  0
    4.5487   -2.4050    1.1489 H   0  0  0  0  0  0  0  0  0  0  0  0
   -0.4530   -4.7980    1.0385 H   0  0  0  0  0  0  0  0  0  0  0  0
    0.6339   -6.6886    2.1181 H   0  0  0  0  0  0  0  0  0  0  0  0
    3.0653   -6.6280    2.6132 H   0  0  0  0  0  0  0  0  0  0  0  0
    4.3831   -4.6361    2.0377 H   0  0  0  0  0  0  0  0  0  0  0  0
   -4.1181    0.4386   -1.9788 H   0  0  0  0  0  0  0  0  0  0  0  0
   -5.5899    2.2505   -1.3339 H   0  0  0  0  0  0  0  0  0  0  0  0
   -7.3511    1.8783    2.9172 H   0  0  0  0  0  0  0  0  0  0  0  0
   -8.3352    3.2093    2.3141 H   0  0  0  0  0  0  0  0  0  0  0  0
   -8.1947    1.7160    1.3728 H   0  0  0  0  0  0  0  0  0  0  0  0
   -5.3210    3.4406    3.1210 H   0  0  0  0  0  0  0  0  0  0  0  0
   -4.7618    4.3570    1.7172 H   0  0  0  0  0  0  0  0  0  0  0  0
   -6.2792    4.7913    2.5202 H   0  0  0  0  0  0  0  0  0  0  0  0
   -7.5633    3.2658   -0.6007 H   0  0  0  0  0  0  0  0  0  0  0  0
   -7.6211    4.6625    0.4745 H   0  0  0  0  0  0  0  0  0  0  0  0
   -6.1598    4.3445   -0.4604 H   0  0  0  0  0  0  0  0  0  0  0  0
   -5.1310    1.1203    2.8167 H   0  0  0  0  0  0  0  0  0  0  0  0
   -3.6595   -0.6995    2.1467 H   0  0  0  0  0  0  0  0  0  0  0  0
   -4.3932   -2.3892   -1.4951 H   0  0  0  0  0  0  0  0  0  0  0  0
    0.7322   -4.4931   -1.6796 H   0  0  0  0  0  0  0  0  0  0  0  0
   -0.2158   -6.1770   -3.1540 H   0  0  0  0  0  0  0  0  0  0  0  0
   -2.6354   -6.1471   -3.7075 H   0  0  0  0  0  0  0  0  0  0  0  0
   -4.0799   -4.3870   -2.7882 H   0  0  0  0  0  0  0  0  0  0  0  0
  2 27  1  0  0  0  0
  2  1  2  0  0  0  0
  3 46  1  0  0  0  0
  3  2  1  0  0  0  0
  4  5  1  0  0  0  0
  4  2  1  0  0  0  0
  5 24  2  0  0  0  0
  5  6  1  0  0  0  0
  6 17  2  0  0  0  0
  7  6  1  0  0  0  0
  7 16  2  0  0  0  0
  8  7  1  0  0  0  0
  9  8  2  0  0  0  0
  9 10  1  0  0  0  0
 10 15  2  0  0  0  0
 11 10  1  0  0  0  0
 11 12  1  0  0  0  0
 12 50  1  0  0  0  0
 12 51  1  0  0  0  0
 13 11  1  0  0  0  0
 13 54  1  0  0  0  0
 14 56  1  0  0  0  0
 14 11  1  0  0  0  0
 15 16  1  0  0  0  0
 15 58  1  0  0  0  0
 16 59  1  0  0  0  0
 17 60  1  0  0  0  0
 17 18  1  0  0  0  0
 18 23  1  0  0  0  0
 19 18  2  0  0  0  0
 19 20  1  0  0  0  0
 20 21  2  0  0  0  0
 21 62  1  0  0  0  0
 21 22  1  0  0  0  0
 22 63  1  0  0  0  0
 23 64  1  0  0  0  0
 23 22  2  0  0  0  0
 24 19  1  0  0  0  0
 25 26  2  0  0  0  0
 25 24  1  0  0  0  0
 26 27  1  0  0  0  0
 28 26  1  0  0  0  0
 28 29  1  0  0  0  0
 29 38  2  0  0  0  0
 30 31  2  0  0  0  0
 30 29  1  0  0  0  0
 31 32  1  0  0  0  0
 32 33  1  0  0  0  0
 32 37  2  0  0  0  0
 33 34  1  0  0  0  0
 33 35  1  0  0  0  0
 34 68  1  0  0  0  0
 34 67  1  0  0  0  0
 35 72  1  0  0  0  0
 35 70  1  0  0  0  0
 36 74  1  0  0  0  0
 36 33  1  0  0  0  0
 37 76  1  0  0  0  0
 38 37  1  0  0  0  0
 38 77  1  0  0  0  0
 39 28  2  0  0  0  0
 40 41  1  0  0  0  0
 40 39  1  0  0  0  0
 41 25  1  0  0  0  0
 42 79  1  0  0  0  0
 42 41  2  0  0  0  0
 43 42  1  0  0  0  0
 44 43  2  0  0  0  0
 44 45  1  0  0  0  0
 45 40  2  0  0  0  0
 47  8  1  0  0  0  0
 48  9  1  0  0  0  0
 49 12  1  0  0  0  0
 52 13  1  0  0  0  0
 53 13  1  0  0  0  0
 55 14  1  0  0  0  0
 57 14  1  0  0  0  0
 61 20  1  0  0  0  0
 65 30  1  0  0  0  0
 66 31  1  0  0  0  0
 69 34  1  0  0  0  0
 71 35  1  0  0  0  0
 73 36  1  0  0  0  0
 75 36  1  0  0  0  0
 78 39  1  0  0  0  0
 80 43  1  0  0  0  0
 81 44  1  0  0  0  0
 82 45  1  0  0  0  0
M  END
$$$$
