O=P1(O)OC2=C(C3=CC(C(F)(F)F)=CC(C(F)(F)F)=C3)C=C4C(C=CC=C4)=C2C5=C(O1)C(C6=CC(C(F)(F)F)=CC(C(F)(F)F)=C6)=CC7=C5C=CC=C7
 OpenBabel09032010373D

 70 76  0  0  0  0  0  0  0  0999 V2000
   -2.0958    1.7883   -0.3147 O   0  0  0  0  0  0  0  0  0  0  0  0
   -1.0490    0.9952    0.4022 P   0  0  0  0  0  0  0  0  0  0  0  0
   -1.0272    1.3723    1.9649 O   0  0  0  0  0  0  0  0  0  0  0  0
   -1.2570   -0.5997    0.4052 O   0  0  0  0  0  0  0  0  0  0  0  0
   -0.7997   -1.3003   -0.6913 C   0  0  0  0  0  0  0  0  0  0  0  0
   -1.7755   -1.8684   -1.5300 C   0  0  0  0  0  0  0  0  0  0  0  0
   -3.2071   -1.6186   -1.3310 C   0  0  0  0  0  0  0  0  0  0  0  0
   -4.0341   -2.5482   -0.6871 C   0  0  0  0  0  0  0  0  0  0  0  0
   -5.3942   -2.2737   -0.4621 C   0  0  0  0  0  0  0  0  0  0  0  0
   -6.2666   -3.2736    0.2597 C   0  0  0  0  0  0  0  0  0  0  0  0
   -7.5695   -3.2232   -0.1339 F   0  0  0  0  0  0  0  0  0  0  0  0
   -6.2737   -3.0755    1.6061 F   0  0  0  0  0  0  0  0  0  0  0  0
   -5.8707   -4.5629    0.0706 F   0  0  0  0  0  0  0  0  0  0  0  0
   -5.9161   -1.0336   -0.8706 C   0  0  0  0  0  0  0  0  0  0  0  0
   -5.1085   -0.0919   -1.5260 C   0  0  0  0  0  0  0  0  0  0  0  0
   -5.6342    1.2675   -1.9191 C   0  0  0  0  0  0  0  0  0  0  0  0
   -5.1087    1.7286   -3.0879 F   0  0  0  0  0  0  0  0  0  0  0  0
   -6.9871    1.2764   -2.0959 F   0  0  0  0  0  0  0  0  0  0  0  0
   -5.3766    2.2192   -0.9814 F   0  0  0  0  0  0  0  0  0  0  0  0
   -3.7656   -0.4082   -1.7655 C   0  0  0  0  0  0  0  0  0  0  0  0
   -1.3473   -2.6398   -2.6078 C   0  0  0  0  0  0  0  0  0  0  0  0
    0.0117   -2.8048   -2.8855 C   0  0  0  0  0  0  0  0  0  0  0  0
    0.9935   -2.2035   -2.0499 C   0  0  0  0  0  0  0  0  0  0  0  0
    2.3388   -2.3293   -2.4817 C   0  0  0  0  0  0  0  0  0  0  0  0
    2.7004   -3.0579   -3.6188 C   0  0  0  0  0  0  0  0  0  0  0  0
    1.7234   -3.6756   -4.3818 C   0  0  0  0  0  0  0  0  0  0  0  0
    0.3868   -3.5431   -4.0202 C   0  0  0  0  0  0  0  0  0  0  0  0
    0.5967   -1.4652   -0.8741 C   0  0  0  0  0  0  0  0  0  0  0  0
    1.5345   -0.8989    0.0803 C   0  0  0  0  0  0  0  0  0  0  0  0
    1.4696    0.4783    0.4213 C   0  0  0  0  0  0  0  0  0  0  0  0
    0.4553    1.2509   -0.1009 O   0  0  0  0  0  0  0  0  0  0  0  0
    2.4123    1.1462    1.2298 C   0  0  0  0  0  0  0  0  0  0  0  0
    2.3056    2.5870    1.5552 C   0  0  0  0  0  0  0  0  0  0  0  0
    2.0777    3.5519    0.5597 C   0  0  0  0  0  0  0  0  0  0  0  0
    1.8869    4.9089    0.8700 C   0  0  0  0  0  0  0  0  0  0  0  0
    1.5414    5.8812   -0.2331 C   0  0  0  0  0  0  0  0  0  0  0  0
    2.4035    5.8097   -1.2844 F   0  0  0  0  0  0  0  0  0  0  0  0
    1.5524    7.1824    0.1703 F   0  0  0  0  0  0  0  0  0  0  0  0
    0.2997    5.6561   -0.7463 F   0  0  0  0  0  0  0  0  0  0  0  0
    1.9783    5.3174    2.2081 C   0  0  0  0  0  0  0  0  0  0  0  0
    2.2494    4.3892    3.2245 C   0  0  0  0  0  0  0  0  0  0  0  0
    2.3375    4.8149    4.6705 C   0  0  0  0  0  0  0  0  0  0  0  0
    3.3374    4.1837    5.3465 F   0  0  0  0  0  0  0  0  0  0  0  0
    1.1928    4.5499    5.3571 F   0  0  0  0  0  0  0  0  0  0  0  0
    2.5681    6.1484    4.8255 F   0  0  0  0  0  0  0  0  0  0  0  0
    2.3901    3.0321    2.8857 C   0  0  0  0  0  0  0  0  0  0  0  0
    3.4576    0.3814    1.7519 C   0  0  0  0  0  0  0  0  0  0  0  0
    3.5415   -0.9976    1.5341 C   0  0  0  0  0  0  0  0  0  0  0  0
    2.5765   -1.6550    0.7248 C   0  0  0  0  0  0  0  0  0  0  0  0
    2.6789   -3.0669    0.6483 C   0  0  0  0  0  0  0  0  0  0  0  0
    3.7051   -3.7791    1.2741 C   0  0  0  0  0  0  0  0  0  0  0  0
    4.6633   -3.1052    2.0135 C   0  0  0  0  0  0  0  0  0  0  0  0
    4.5775   -1.7230    2.1465 C   0  0  0  0  0  0  0  0  0  0  0  0
   -1.8796    1.7721    2.2182 H   0  0  0  0  0  0  0  0  0  0  0  0
   -3.6097   -3.4912   -0.3408 H   0  0  0  0  0  0  0  0  0  0  0  0
   -6.9631   -0.7982   -0.6718 H   0  0  0  0  0  0  0  0  0  0  0  0
   -3.1337    0.3236   -2.2727 H   0  0  0  0  0  0  0  0  0  0  0  0
   -2.0929   -3.0827   -3.2674 H   0  0  0  0  0  0  0  0  0  0  0  0
    3.1448   -1.8405   -1.9370 H   0  0  0  0  0  0  0  0  0  0  0  0
    3.7469   -3.1311   -3.9042 H   0  0  0  0  0  0  0  0  0  0  0  0
    1.9961   -4.2427   -5.2677 H   0  0  0  0  0  0  0  0  0  0  0  0
   -0.3678   -4.0116   -4.6497 H   0  0  0  0  0  0  0  0  0  0  0  0
    2.0167    3.2426   -0.4854 H   0  0  0  0  0  0  0  0  0  0  0  0
    1.8306    6.3682    2.4627 H   0  0  0  0  0  0  0  0  0  0  0  0
    2.5463    2.3062    3.6852 H   0  0  0  0  0  0  0  0  0  0  0  0
    4.2128    0.8689    2.3676 H   0  0  0  0  0  0  0  0  0  0  0  0
    1.9396   -3.6488    0.0997 H   0  0  0  0  0  0  0  0  0  0  0  0
    3.7435   -4.8615    1.1821 H   0  0  0  0  0  0  0  0  0  0  0  0
    5.4650   -3.6527    2.5016 H   0  0  0  0  0  0  0  0  0  0  0  0
    5.3244   -1.2149    2.7539 H   0  0  0  0  0  0  0  0  0  0  0  0
  1  2  2  0  0  0  0
  2  4  1  0  0  0  0
  2  3  1  0  0  0  0
  3 54  1  0  0  0  0
  5  4  1  0  0  0  0
  6  7  1  0  0  0  0
  6  5  2  0  0  0  0
  7  8  2  0  0  0  0
  8  9  1  0  0  0  0
  8 55  1  0  0  0  0
  9 10  1  0  0  0  0
 10 12  1  0  0  0  0
 11 10  1  0  0  0  0
 13 10  1  0  0  0  0
 14 56  1  0  0  0  0
 14  9  2  0  0  0  0
 15 14  1  0  0  0  0
 16 15  1  0  0  0  0
 16 19  1  0  0  0  0
 17 16  1  0  0  0  0
 18 16  1  0  0  0  0
 20 15  2  0  0  0  0
 20  7  1  0  0  0  0
 21  6  1  0  0  0  0
 22 21  2  0  0  0  0
 22 23  1  0  0  0  0
 23 28  2  0  0  0  0
 24 23  1  0  0  0  0
 24 59  1  0  0  0  0
 25 24  2  0  0  0  0
 26 27  2  0  0  0  0
 26 25  1  0  0  0  0
 27 22  1  0  0  0  0
 28  5  1  0  0  0  0
 28 29  1  0  0  0  0
 29 30  2  0  0  0  0
 29 49  1  0  0  0  0
 30 32  1  0  0  0  0
 31  2  1  0  0  0  0
 31 30  1  0  0  0  0
 32 33  1  0  0  0  0
 32 47  2  0  0  0  0
 33 46  2  0  0  0  0
 34 35  2  0  0  0  0
 34 33  1  0  0  0  0
 35 40  1  0  0  0  0
 36 38  1  0  0  0  0
 36 35  1  0  0  0  0
 37 36  1  0  0  0  0
 39 36  1  0  0  0  0
 40 64  1  0  0  0  0
 40 41  2  0  0  0  0
 41 42  1  0  0  0  0
 42 45  1  0  0  0  0
 42 43  1  0  0  0  0
 42 44  1  0  0  0  0
 46 41  1  0  0  0  0
 46 65  1  0  0  0  0
 47 66  1  0  0  0  0
 48 47  1  0  0  0  0
 48 53  2  0  0  0  0
 49 48  1  0  0  0  0
 50 49  2  0  0  0  0
 50 51  1  0  0  0  0
 51 52  2  0  0  0  0
 52 53  1  0  0  0  0
 52 69  1  0  0  0  0
 53 70  1  0  0  0  0
 57 20  1  0  0  0  0
 58 21  1  0  0  0  0
 60 25  1  0  0  0  0
 61 26  1  0  0  0  0
 62 27  1  0  0  0  0
 63 34  1  0  0  0  0
 67 50  1  0  0  0  0
 68 51  1  0  0  0  0
M  END
$$$$
