O=P1(O)OC2=C(C3=CC=C(S(F)(F)(F)(F)F)C=C3)C=C4C(C=CC=C4)=C2C5=C(O1)C(C6=CC=C(S(F)(F)(F)(F)F)C=C6)=CC7=C5C=CC=C7
 OpenBabel09032010373D

 68 66  0  0  0  0  0  0  0  0999 V2000
   -0.6094   -2.9660   -0.4661 O   0  0  0  0  0  0  0  0  0  0  0  0
   -0.1345   -1.6635   -1.0409 P   0  0  0  0  0  0  0  0  0  0  0  0
    0.2573   -1.8851   -2.6414 O   0  0  0  0  0  0  0  0  0  0  0  0
   -1.3777   -0.4255   -0.9767 O   0  0  0  0  0  0  0  0  0  0  0  0
   -1.5950    0.3201    0.1560 C   0  0  0  0  0  0  0  0  0  0  0  0
   -2.8498    0.4788    0.6662 C   0  0  0  0  0  0  0  0  0  0  0  0
   -3.9644   -0.1332   -0.0523 C   0  0  0  0  0  0  0  0  0  0  0  0
   -4.9202   -0.8651    0.6040 C   0  0  0  0  0  0  0  0  0  0  0  0
   -5.9906   -1.4446   -0.0984 C   0  0  0  0  0  0  0  0  0  0  0  0
   -6.1241   -1.3112   -1.4210 C   0  0  0  0  0  0  0  0  0  0  0  0
   -7.6211   -2.1959   -2.3935 S   0  0  0  0  0  0  0  0  0  0  0  0
   -9.6857   -2.0973   -1.1687 F   0  0  0  0  0  0  0  0  0  0  0  0
   -8.8845   -0.4314   -2.6624 F   0  0  0  0  0  0  0  0  0  0  0  0
   -6.9763   -3.6359   -3.3428 F   0  0  0  0  0  0  0  0  0  0  0  0
   -8.1984   -1.8865   -4.4538 F   0  0  0  0  0  0  0  0  0  0  0  0
   -8.5051   -4.0530   -1.5729 F   0  0  0  0  0  0  0  0  0  0  0  0
   -5.1521   -0.5723   -2.0502 C   0  0  0  0  0  0  0  0  0  0  0  0
   -4.0585    0.0320   -1.4052 C   0  0  0  0  0  0  0  0  0  0  0  0
   -3.0995    1.1987    1.8311 C   0  0  0  0  0  0  0  0  0  0  0  0
   -2.0484    1.7744    2.5150 C   0  0  0  0  0  0  0  0  0  0  0  0
   -0.7056    1.6624    2.0558 C   0  0  0  0  0  0  0  0  0  0  0  0
    0.3652    2.0537    2.8183 C   0  0  0  0  0  0  0  0  0  0  0  0
    0.1394    2.6064    4.0698 C   0  0  0  0  0  0  0  0  0  0  0  0
   -1.1629    2.7463    4.5263 C   0  0  0  0  0  0  0  0  0  0  0  0
   -2.2294    2.3357    3.7622 C   0  0  0  0  0  0  0  0  0  0  0  0
   -0.5769    0.9601    0.9082 C   0  0  0  0  0  0  0  0  0  0  0  0
    0.7990    1.1819    0.3735 C   0  0  0  0  0  0  0  0  0  0  0  0
    1.6840    0.1204    0.0640 C   0  0  0  0  0  0  0  0  0  0  0  0
    1.2694   -1.2045   -0.0761 O   0  0  0  0  0  0  0  0  0  0  0  0
    2.9777    0.4670   -0.1208 C   0  0  0  0  0  0  0  0  0  0  0  0
    3.9410   -0.5964   -0.4280 C   0  0  0  0  0  0  0  0  0  0  0  0
    3.9378   -1.7358    0.3079 C   0  0  0  0  0  0  0  0  0  0  0  0
    4.8752   -2.7111   -0.0343 C   0  0  0  0  0  0  0  0  0  0  0  0
    5.7944   -2.5934   -1.0580 C   0  0  0  0  0  0  0  0  0  0  0  0
    7.1934   -3.9814   -1.4164 S   0  0  0  0  0  0  0  0  0  0  0  0
    8.3791   -4.1523   -0.2704 F   0  0  0  0  0  0  0  0  0  0  0  0
    5.6735   -5.3183   -2.6581 F   0  0  0  0  0  0  0  0  0  0  0  0
    7.0642   -6.0840   -0.8443 F   0  0  0  0  0  0  0  0  0  0  0  0
    7.3657   -4.2380   -3.9292 F   0  0  0  0  0  0  0  0  0  0  0  0
    9.0044   -3.4931   -2.4669 F   0  0  0  0  0  0  0  0  0  0  0  0
    5.7427   -1.4498   -1.7421 C   0  0  0  0  0  0  0  0  0  0  0  0
    4.8253   -0.4269   -1.4517 C   0  0  0  0  0  0  0  0  0  0  0  0
    3.3946    1.7892   -0.0210 C   0  0  0  0  0  0  0  0  0  0  0  0
    2.4772    2.7800    0.2638 C   0  0  0  0  0  0  0  0  0  0  0  0
    1.0992    2.4920    0.4728 C   0  0  0  0  0  0  0  0  0  0  0  0
    0.1459    3.4769    0.5609 C   0  0  0  0  0  0  0  0  0  0  0  0
    0.5362    4.8000    0.4739 C   0  0  0  0  0  0  0  0  0  0  0  0
    1.8744    5.1082    0.2944 C   0  0  0  0  0  0  0  0  0  0  0  0
    2.8199    4.1174    0.1902 C   0  0  0  0  0  0  0  0  0  0  0  0
    0.5489   -2.7968   -2.8606 H   0  0  0  0  0  0  0  0  0  0  0  0
   -4.9187   -1.0373    1.6458 H   0  0  0  0  0  0  0  0  0  0  0  0
   -6.7190   -2.0093    0.4447 H   0  0  0  0  0  0  0  0  0  0  0  0
   -5.3205   -0.4982   -3.1286 H   0  0  0  0  0  0  0  0  0  0  0  0
   -3.3708    0.5775   -1.9716 H   0  0  0  0  0  0  0  0  0  0  0  0
   -4.1205    1.3022    2.1939 H   0  0  0  0  0  0  0  0  0  0  0  0
    1.4117    1.8907    2.6610 H   0  0  0  0  0  0  0  0  0  0  0  0
    0.9259    2.9362    4.7023 H   0  0  0  0  0  0  0  0  0  0  0  0
   -1.3430    3.1974    5.5024 H   0  0  0  0  0  0  0  0  0  0  0  0
   -3.2651    2.4434    4.1254 H   0  0  0  0  0  0  0  0  0  0  0  0
    3.2818   -1.9216    1.1111 H   0  0  0  0  0  0  0  0  0  0  0  0
    4.9649   -3.6767    0.4847 H   0  0  0  0  0  0  0  0  0  0  0  0
    6.4339   -1.3017   -2.5527 H   0  0  0  0  0  0  0  0  0  0  0  0
    4.8957    0.4299   -2.0778 H   0  0  0  0  0  0  0  0  0  0  0  0
    4.4360    2.0260   -0.1682 H   0  0  0  0  0  0  0  0  0  0  0  0
   -0.9208    3.3906    0.5667 H   0  0  0  0  0  0  0  0  0  0  0  0
   -0.1645    5.5879    0.5450 H   0  0  0  0  0  0  0  0  0  0  0  0
    2.1917    6.1533    0.2436 H   0  0  0  0  0  0  0  0  0  0  0  0
    3.8863    4.3567    0.0439 H   0  0  0  0  0  0  0  0  0  0  0  0
  2  4  1  0  0  0  0
  2  1  2  0  0  0  0
  2 29  1  0  0  0  0
  3  2  1  0  0  0  0
  4  5  1  0  0  0  0
  5  6  2  0  0  0  0
  5 26  1  0  0  0  0
  6 19  1  0  0  0  0
  7  8  1  0  0  0  0
  7  6  1  0  0  0  0
  8 51  1  0  0  0  0
  9 52  1  0  0  0  0
  9  8  2  0  0  0  0
 10  9  1  0  0  0  0
 11 10  1  0  0  0  0
 14 11  1  0  0  0  0
 17 10  2  0  0  0  0
 17 18  1  0  0  0  0
 18  7  2  0  0  0  0
 19 55  1  0  0  0  0
 19 20  2  0  0  0  0
 20 25  1  0  0  0  0
 21 20  1  0  0  0  0
 21 22  1  0  0  0  0
 22 23  2  0  0  0  0
 23 24  1  0  0  0  0
 23 57  1  0  0  0  0
 24 58  1  0  0  0  0
 25 59  1  0  0  0  0
 25 24  2  0  0  0  0
 26 21  2  0  0  0  0
 27 45  1  0  0  0  0
 27 26  1  0  0  0  0
 28 27  2  0  0  0  0
 29 28  1  0  0  0  0
 30 43  2  0  0  0  0
 30 28  1  0  0  0  0
 31 30  1  0  0  0  0
 31 32  2  0  0  0  0
 32 60  1  0  0  0  0
 33 32  1  0  0  0  0
 33 61  1  0  0  0  0
 34 33  2  0  0  0  0
 35 34  1  0  0  0  0
 35 36  1  0  0  0  0
 41 42  2  0  0  0  0
 41 34  1  0  0  0  0
 42 31  1  0  0  0  0
 43 44  1  0  0  0  0
 44 45  1  0  0  0  0
 45 46  2  0  0  0  0
 46 65  1  0  0  0  0
 47 66  1  0  0  0  0
 47 46  1  0  0  0  0
 48 47  2  0  0  0  0
 49 44  2  0  0  0  0
 49 48  1  0  0  0  0
 50  3  1  0  0  0  0
 53 17  1  0  0  0  0
 54 18  1  0  0  0  0
 56 22  1  0  0  0  0
 62 41  1  0  0  0  0
 63 42  1  0  0  0  0
 64 43  1  0  0  0  0
 67 48  1  0  0  0  0
 68 49  1  0  0  0  0
M  RAD  8  12   2  13   2  15   2  16   2  37   2  38   2  39   2  40   2
M  END
$$$$
