O=P1(O)OC2=C(C3=C(C=CC=C4)C4=CC5=C3C=CC=C5)C=C6C(C=CC=C6)=C2C7=C(O1)[C@@]([C@@]8=C(C=CC=C9)C9=CC%10=C8C=CC=C%10)=CC%11=C7C=CC=C%11
 OpenBabel09032010383D

 82 92  0  0  0  0  0  0  0  0999 V2000
   -0.6123    2.7562    0.2164 O   0  0  0  0  0  0  0  0  0  0  0  0
   -0.0993    1.4191    0.6455 P   0  0  0  0  0  0  0  0  0  0  0  0
    0.5207    1.4737    2.1278 O   0  0  0  0  0  0  0  0  0  0  0  0
    1.1110    0.8431   -0.2468 O   0  0  0  0  0  0  0  0  0  0  0  0
    1.5480   -0.4463   -0.0486 C   0  0  0  0  0  0  0  0  0  0  0  0
    2.8752   -0.5930    0.3983 C   0  0  0  0  0  0  0  0  0  0  0  0
    3.7552    0.5739    0.6587 C   0  0  0  0  0  0  0  0  0  0  0  0
    3.9499    1.0388    2.0001 C   0  0  0  0  0  0  0  0  0  0  0  0
    3.3417    0.4519    3.1386 C   0  0  0  0  0  0  0  0  0  0  0  0
    3.5524    0.9421    4.4295 C   0  0  0  0  0  0  0  0  0  0  0  0
    4.3823    2.0352    4.6246 C   0  0  0  0  0  0  0  0  0  0  0  0
    4.9964    2.6361    3.5284 C   0  0  0  0  0  0  0  0  0  0  0  0
    4.7897    2.1531    2.2242 C   0  0  0  0  0  0  0  0  0  0  0  0
    5.4176    2.7809    1.1424 C   0  0  0  0  0  0  0  0  0  0  0  0
    5.2421    2.3380   -0.1736 C   0  0  0  0  0  0  0  0  0  0  0  0
    4.4106    1.2266   -0.4363 C   0  0  0  0  0  0  0  0  0  0  0  0
    4.2800    0.8248   -1.7900 C   0  0  0  0  0  0  0  0  0  0  0  0
    4.9305    1.4926   -2.8298 C   0  0  0  0  0  0  0  0  0  0  0  0
    5.7390    2.5827   -2.5478 C   0  0  0  0  0  0  0  0  0  0  0  0
    5.8942    3.0010   -1.2281 C   0  0  0  0  0  0  0  0  0  0  0  0
    3.3732   -1.8850    0.5742 C   0  0  0  0  0  0  0  0  0  0  0  0
    2.5707   -3.0057    0.3545 C   0  0  0  0  0  0  0  0  0  0  0  0
    1.2353   -2.8493   -0.1059 C   0  0  0  0  0  0  0  0  0  0  0  0
    0.4689   -4.0381   -0.2106 C   0  0  0  0  0  0  0  0  0  0  0  0
    0.9993   -5.3034    0.0559 C   0  0  0  0  0  0  0  0  0  0  0  0
    2.3199   -5.4255    0.4560 C   0  0  0  0  0  0  0  0  0  0  0  0
    3.0983   -4.2824    0.6099 C   0  0  0  0  0  0  0  0  0  0  0  0
    0.7101   -1.5353   -0.3909 C   0  0  0  0  0  0  0  0  0  0  0  0
   -0.5802   -1.3018   -1.0124 C   0  0  0  0  0  0  0  0  0  0  0  0
   -1.5217   -0.4370   -0.4017 C   0  0  0  0  0  0  0  0  0  0  0  0
   -1.1760    0.2276    0.7517 O   0  0  0  0  0  0  0  0  0  0  0  0
   -2.8451   -0.2835   -0.8510 C   0  0  0  0  0  0  0  0  0  0  0  0
   -3.8353    0.5587   -0.1355 C   0  0  0  0  0  0  0  0  0  0  0  0
   -4.1056    1.8892   -0.5930 C   0  0  0  0  0  0  0  0  0  0  0  0
   -3.4545    2.4951   -1.6971 C   0  0  0  0  0  0  0  0  0  0  0  0
   -3.7520    3.7955   -2.1121 C   0  0  0  0  0  0  0  0  0  0  0  0
   -4.7113    4.5333   -1.4355 C   0  0  0  0  0  0  0  0  0  0  0  0
   -5.3663    3.9703   -0.3429 C   0  0  0  0  0  0  0  0  0  0  0  0
   -5.0742    2.6632    0.0854 C   0  0  0  0  0  0  0  0  0  0  0  0
   -5.7451    2.1272    1.1906 C   0  0  0  0  0  0  0  0  0  0  0  0
   -5.4909    0.8312    1.6538 C   0  0  0  0  0  0  0  0  0  0  0  0
   -4.5347    0.0252    0.9965 C   0  0  0  0  0  0  0  0  0  0  0  0
   -4.3314   -1.2812    1.5096 C   0  0  0  0  0  0  0  0  0  0  0  0
   -5.0304   -1.7615    2.6194 C   0  0  0  0  0  0  0  0  0  0  0  0
   -5.9614   -0.9506    3.2501 C   0  0  0  0  0  0  0  0  0  0  0  0
   -6.1902    0.3365    2.7690 C   0  0  0  0  0  0  0  0  0  0  0  0
   -3.2349   -0.9758   -1.9998 C   0  0  0  0  0  0  0  0  0  0  0  0
   -2.3331   -1.7711   -2.7097 C   0  0  0  0  0  0  0  0  0  0  0  0
   -1.0003   -1.9272   -2.2438 C   0  0  0  0  0  0  0  0  0  0  0  0
   -0.1315   -2.6757   -3.0791 C   0  0  0  0  0  0  0  0  0  0  0  0
   -0.5617   -3.2882   -4.2597 C   0  0  0  0  0  0  0  0  0  0  0  0
   -1.8814   -3.1591   -4.6604 C   0  0  0  0  0  0  0  0  0  0  0  0
   -2.7590   -2.3987   -3.8929 C   0  0  0  0  0  0  0  0  0  0  0  0
    1.0532    2.2812    2.2479 H   0  0  0  0  0  0  0  0  0  0  0  0
    2.6722   -0.4003    3.0318 H   0  0  0  0  0  0  0  0  0  0  0  0
    3.0635    0.4665    5.2760 H   0  0  0  0  0  0  0  0  0  0  0  0
    4.5532    2.4205    5.6261 H   0  0  0  0  0  0  0  0  0  0  0  0
    5.6452    3.4927    3.7019 H   0  0  0  0  0  0  0  0  0  0  0  0
    6.0629    3.6385    1.3295 H   0  0  0  0  0  0  0  0  0  0  0  0
    3.6532   -0.0238   -2.0568 H   0  0  0  0  0  0  0  0  0  0  0  0
    4.7979    1.1580   -3.8553 H   0  0  0  0  0  0  0  0  0  0  0  0
    6.2486    3.1085   -3.3506 H   0  0  0  0  0  0  0  0  0  0  0  0
    6.5338    3.8582   -1.0275 H   0  0  0  0  0  0  0  0  0  0  0  0
    4.4009   -2.0088    0.9151 H   0  0  0  0  0  0  0  0  0  0  0  0
   -0.5814   -3.9930   -0.4933 H   0  0  0  0  0  0  0  0  0  0  0  0
    0.3723   -6.1855   -0.0449 H   0  0  0  0  0  0  0  0  0  0  0  0
    2.7419   -6.4037    0.6670 H   0  0  0  0  0  0  0  0  0  0  0  0
    4.1266   -4.3975    0.9488 H   0  0  0  0  0  0  0  0  0  0  0  0
   -2.6825    1.9607   -2.2465 H   0  0  0  0  0  0  0  0  0  0  0  0
   -3.2225    4.2288   -2.9563 H   0  0  0  0  0  0  0  0  0  0  0  0
   -4.9437    5.5469   -1.7492 H   0  0  0  0  0  0  0  0  0  0  0  0
   -6.1105    4.5672    0.1802 H   0  0  0  0  0  0  0  0  0  0  0  0
   -6.4857    2.7372    1.7059 H   0  0  0  0  0  0  0  0  0  0  0  0
   -3.6076   -1.9491    1.0473 H   0  0  0  0  0  0  0  0  0  0  0  0
   -4.8392   -2.7663    2.9863 H   0  0  0  0  0  0  0  0  0  0  0  0
   -6.5092   -1.3155    4.1144 H   0  0  0  0  0  0  0  0  0  0  0  0
   -6.9254    0.9579    3.2767 H   0  0  0  0  0  0  0  0  0  0  0  0
   -4.2602   -0.8662   -2.3533 H   0  0  0  0  0  0  0  0  0  0  0  0
    0.9209   -2.7839   -2.8230 H   0  0  0  0  0  0  0  0  0  0  0  0
    0.1415   -3.8578   -4.8617 H   0  0  0  0  0  0  0  0  0  0  0  0
   -2.2266   -3.6315   -5.5759 H   0  0  0  0  0  0  0  0  0  0  0  0
   -3.7860   -2.2876   -4.2371 H   0  0  0  0  0  0  0  0  0  0  0  0
  1  2  2  0  0  0  0
  2 31  1  0  0  0  0
  2  3  1  0  0  0  0
  3 54  1  0  0  0  0
  4  5  1  0  0  0  0
  4  2  1  0  0  0  0
  5  6  2  0  0  0  0
  6 21  1  0  0  0  0
  6  7  1  0  0  0  0
  7  8  2  0  0  0  0
  8 13  1  0  0  0  0
  8  9  1  0  0  0  0
  9 10  2  0  0  0  0
 10 11  1  0  0  0  0
 10 56  1  0  0  0  0
 11 57  1  0  0  0  0
 12 58  1  0  0  0  0
 12 11  2  0  0  0  0
 13 12  1  0  0  0  0
 14 59  1  0  0  0  0
 14 13  2  0  0  0  0
 15 14  1  0  0  0  0
 16 15  1  0  0  0  0
 16  7  1  0  0  0  0
 17 16  2  0  0  0  0
 18 19  2  0  0  0  0
 18 17  1  0  0  0  0
 19 20  1  0  0  0  0
 20 63  1  0  0  0  0
 20 15  2  0  0  0  0
 21 64  1  0  0  0  0
 22 21  2  0  0  0  0
 22 27  1  0  0  0  0
 23 22  1  0  0  0  0
 24 23  1  0  0  0  0
 24 25  2  0  0  0  0
 25 26  1  0  0  0  0
 26 27  2  0  0  0  0
 26 67  1  0  0  0  0
 27 68  1  0  0  0  0
 28 23  2  0  0  0  0
 28  5  1  0  0  0  0
 29 30  2  0  0  0  0
 29 28  1  0  0  0  0
 30 31  1  0  0  0  0
 32 30  1  0  0  0  0
 32 33  1  0  0  0  0
 33 42  1  0  0  0  0
 34 33  2  0  0  0  0
 34 39  1  0  0  0  0
 35 34  1  0  0  0  0
 36 35  2  0  0  0  0
 36 37  1  0  0  0  0
 37 38  2  0  0  0  0
 38 39  1  0  0  0  0
 38 72  1  0  0  0  0
 39 40  2  0  0  0  0
 40 41  1  0  0  0  0
 40 73  1  0  0  0  0
 41 46  2  0  0  0  0
 42 43  2  0  0  0  0
 42 41  1  0  0  0  0
 43 44  1  0  0  0  0
 44 75  1  0  0  0  0
 44 45  2  0  0  0  0
 45 76  1  0  0  0  0
 46 45  1  0  0  0  0
 46 77  1  0  0  0  0
 47 32  2  0  0  0  0
 48 49  1  0  0  0  0
 48 47  1  0  0  0  0
 49 29  1  0  0  0  0
 50 79  1  0  0  0  0
 50 49  2  0  0  0  0
 51 50  1  0  0  0  0
 52 51  2  0  0  0  0
 52 53  1  0  0  0  0
 53 48  2  0  0  0  0
 55  9  1  0  0  0  0
 60 17  1  0  0  0  0
 61 18  1  0  0  0  0
 62 19  1  0  0  0  0
 65 24  1  0  0  0  0
 66 25  1  0  0  0  0
 69 35  1  0  0  0  0
 70 36  1  0  0  0  0
 71 37  1  0  0  0  0
 74 43  1  0  0  0  0
 78 47  1  0  0  0  0
 80 51  1  0  0  0  0
 81 52  1  0  0  0  0
 82 53  1  0  0  0  0
M  END
$$$$
