O=P1(O)OC2=C(CC3=CC(C(F)(F)F)=CC(C(F)(F)F)=C3)C=C4C(CCCC4)=C2C5=C(O1)C(CC6=CC(C(F)(F)F)=CC(C(F)(F)F)=C6)=CC7=C5CCCC7
 OpenBabel09032010373D

 84 90  0  0  0  0  0  0  0  0999 V2000
   -1.4469    2.3694    0.2361 O   0  0  0  0  0  0  0  0  0  0  0  0
   -0.7043    1.1126    0.6040 P   0  0  2  0  0  0  0  0  0  0  0  0
   -0.7244    0.8971    2.2006 O   0  0  0  0  0  0  0  0  0  0  0  0
    0.8596    1.1789    0.2086 O   0  0  0  0  0  0  0  0  0  0  0  0
    1.7034    0.1945    0.6393 C   0  0  0  0  0  0  0  0  0  0  0  0
    2.7490    0.5555    1.5141 C   0  0  0  0  0  0  0  0  0  0  0  0
    3.1041    2.0015    1.8410 C   0  0  0  0  0  0  0  0  0  0  0  0
    2.0746    2.7205    2.6822 C   0  0  0  0  0  0  0  0  0  0  0  0
    2.0026    2.5336    4.0677 C   0  0  0  0  0  0  0  0  0  0  0  0
    0.9113    3.0278    4.8047 C   0  0  0  0  0  0  0  0  0  0  0  0
    0.8134    2.7533    6.2849 C   0  0  0  0  0  0  0  0  0  0  0  0
   -0.0205    3.6073    6.9393 F   0  0  0  0  0  0  0  0  0  0  0  0
    0.3479    1.4998    6.5435 F   0  0  0  0  0  0  0  0  0  0  0  0
    2.0150    2.8437    6.9206 F   0  0  0  0  0  0  0  0  0  0  0  0
   -0.1442    3.6577    4.1240 C   0  0  0  0  0  0  0  0  0  0  0  0
   -0.0842    3.8428    2.7363 C   0  0  0  0  0  0  0  0  0  0  0  0
   -1.3363    4.1300    1.9274 C   0  0  0  0  0  0  0  0  0  0  0  0
   -1.9889    2.9601    1.6397 F   0  0  0  0  0  0  0  0  0  0  0  0
   -1.0798    4.6891    0.7131 F   0  0  0  0  0  0  0  0  0  0  0  0
   -2.2242    4.9416    2.5611 F   0  0  0  0  0  0  0  0  0  0  0  0
    1.0764    3.4661    2.0478 C   0  0  0  0  0  0  0  0  0  0  0  0
    3.5149   -0.4718    2.0664 C   0  0  0  0  0  0  0  0  0  0  0  0
    3.2574   -1.8145    1.7569 C   0  0  0  0  0  0  0  0  0  0  0  0
    2.2444   -2.1420    0.8233 C   0  0  0  0  0  0  0  0  0  0  0  0
    1.9336   -3.6064    0.5491 C   0  0  0  0  0  0  0  0  0  0  0  0
    2.4293   -4.5552    1.6385 C   0  0  0  0  0  0  0  0  0  0  0  0
    3.8941   -4.2760    1.9308 C   0  0  0  0  0  0  0  0  0  0  0  0
    4.0553   -2.8686    2.4921 C   0  0  0  0  0  0  0  0  0  0  0  0
    1.4904   -1.1163    0.1700 C   0  0  0  0  0  0  0  0  0  0  0  0
    0.6044   -1.3545   -0.9458 C   0  0  0  0  0  0  0  0  0  0  0  0
   -0.7796   -1.0200   -0.9269 C   0  0  0  0  0  0  0  0  0  0  0  0
   -1.3128   -0.2980    0.1169 O   0  0  0  0  0  0  0  0  0  0  0  0
   -1.6891   -1.4654   -1.9222 C   0  0  0  0  0  0  0  0  0  0  0  0
   -3.1995   -1.3158   -1.8024 C   0  0  0  0  0  0  0  0  0  0  0  0
   -3.8125    0.0335   -2.1159 C   0  0  0  0  0  0  0  0  0  0  0  0
   -3.0498    1.1962   -2.0910 C   0  0  0  0  0  0  0  0  0  0  0  0
   -3.6380    2.4628   -2.0070 C   0  0  0  0  0  0  0  0  0  0  0  0
   -2.7237    3.6095   -1.6230 C   0  0  0  0  0  0  0  0  0  0  0  0
   -3.3858    4.6713   -1.0862 F   0  0  0  0  0  0  0  0  0  0  0  0
   -2.0332    4.0968   -2.6925 F   0  0  0  0  0  0  0  0  0  0  0  0
   -1.7824    3.2249   -0.6996 F   0  0  0  0  0  0  0  0  0  0  0  0
   -5.0239    2.5818   -2.1755 C   0  0  0  0  0  0  0  0  0  0  0  0
   -5.8191    1.4307   -2.3380 C   0  0  0  0  0  0  0  0  0  0  0  0
   -7.3271    1.5506   -2.4521 C   0  0  0  0  0  0  0  0  0  0  0  0
   -7.7222    2.5957   -3.2287 F   0  0  0  0  0  0  0  0  0  0  0  0
   -7.9205    0.4441   -2.9774 F   0  0  0  0  0  0  0  0  0  0  0  0
   -7.8975    1.7446   -1.2320 F   0  0  0  0  0  0  0  0  0  0  0  0
   -5.2036    0.1637   -2.2647 C   0  0  0  0  0  0  0  0  0  0  0  0
   -1.1834   -2.1055   -3.0557 C   0  0  0  0  0  0  0  0  0  0  0  0
    0.1857   -2.3056   -3.1951 C   0  0  0  0  0  0  0  0  0  0  0  0
    1.0733   -1.9389   -2.1561 C   0  0  0  0  0  0  0  0  0  0  0  0
    2.5503   -2.1317   -2.4733 C   0  0  0  0  0  0  0  0  0  0  0  0
    2.8690   -1.6099   -3.8762 C   0  0  0  0  0  0  0  0  0  0  0  0
    1.9588   -2.1834   -4.9677 C   0  0  0  0  0  0  0  0  0  0  0  0
    0.7486   -2.9512   -4.4361 C   0  0  0  0  0  0  0  0  0  0  0  0
   -0.2529    0.0848    2.4741 H   0  0  0  0  0  0  0  0  0  0  0  0
    4.0705    2.0468    2.3606 H   0  0  0  0  0  0  0  0  0  0  0  0
    3.2689    2.5407    0.8986 H   0  0  0  0  0  0  0  0  0  0  0  0
    2.7758    1.9580    4.5761 H   0  0  0  0  0  0  0  0  0  0  0  0
   -1.0515    3.9326    4.6639 H   0  0  0  0  0  0  0  0  0  0  0  0
    1.1130    3.6068    0.9660 H   0  0  0  0  0  0  0  0  0  0  0  0
    4.3159   -0.2329    2.7654 H   0  0  0  0  0  0  0  0  0  0  0  0
    0.8512   -3.7475    0.4482 H   0  0  0  0  0  0  0  0  0  0  0  0
    2.4035   -3.9009   -0.3924 H   0  0  0  0  0  0  0  0  0  0  0  0
    1.8336   -4.4297    2.5513 H   0  0  0  0  0  0  0  0  0  0  0  0
    2.3014   -5.5922    1.3084 H   0  0  0  0  0  0  0  0  0  0  0  0
    4.2871   -5.0067    2.6464 H   0  0  0  0  0  0  0  0  0  0  0  0
    4.4814   -4.3811    1.0098 H   0  0  0  0  0  0  0  0  0  0  0  0
    3.7283   -2.8643    3.5399 H   0  0  0  0  0  0  0  0  0  0  0  0
    5.1196   -2.6041    2.4782 H   0  0  0  0  0  0  0  0  0  0  0  0
   -3.4826   -1.5871   -0.7762 H   0  0  0  0  0  0  0  0  0  0  0  0
   -3.6786   -2.0667   -2.4456 H   0  0  0  0  0  0  0  0  0  0  0  0
   -1.9662    1.1451   -2.0209 H   0  0  0  0  0  0  0  0  0  0  0  0
   -5.4976    3.5646   -2.1385 H   0  0  0  0  0  0  0  0  0  0  0  0
   -5.8260   -0.7317   -2.2861 H   0  0  0  0  0  0  0  0  0  0  0  0
   -1.8587   -2.4325   -3.8443 H   0  0  0  0  0  0  0  0  0  0  0  0
    2.7971   -3.1976   -2.4154 H   0  0  0  0  0  0  0  0  0  0  0  0
    3.1952   -1.6015   -1.7667 H   0  0  0  0  0  0  0  0  0  0  0  0
    2.7675   -0.5162   -3.8787 H   0  0  0  0  0  0  0  0  0  0  0  0
    3.9171   -1.8181   -4.1212 H   0  0  0  0  0  0  0  0  0  0  0  0
    2.5359   -2.8402   -5.6297 H   0  0  0  0  0  0  0  0  0  0  0  0
    1.6132   -1.3532   -5.5975 H   0  0  0  0  0  0  0  0  0  0  0  0
   -0.0086   -3.0190   -5.2260 H   0  0  0  0  0  0  0  0  0  0  0  0
    1.0367   -3.9803   -4.1865 H   0  0  0  0  0  0  0  0  0  0  0  0
  2  1  1  6  0  0  0
  2  3  1  0  0  0  0
  3 56  1  0  0  0  0
  4  2  1  0  0  0  0
  4  5  1  0  0  0  0
  5  6  1  0  0  0  0
  6  7  1  0  0  0  0
  6 22  2  0  0  0  0
  7 57  1  0  0  0  0
  7  8  1  0  0  0  0
  8  9  1  0  0  0  0
  9 59  1  0  0  0  0
  9 10  2  0  0  0  0
 10 11  1  0  0  0  0
 11 13  1  0  0  0  0
 11 14  1  0  0  0  0
 11 12  1  0  0  0  0
 15 60  1  0  0  0  0
 15 10  1  0  0  0  0
 16 15  2  0  0  0  0
 17 20  1  0  0  0  0
 17 16  1  0  0  0  0
 18 17  1  0  0  0  0
 19 17  1  0  0  0  0
 21  8  2  0  0  0  0
 21 16  1  0  0  0  0
 22 62  1  0  0  0  0
 23 22  1  0  0  0  0
 23 28  1  0  0  0  0
 24 23  2  0  0  0  0
 25 24  1  0  0  0  0
 25 26  1  0  0  0  0
 26 27  1  0  0  0  0
 26 65  1  0  0  0  0
 27 28  1  0  0  0  0
 27 67  1  0  0  0  0
 28 69  1  0  0  0  0
 29  5  2  0  0  0  0
 29 24  1  0  0  0  0
 30 31  1  0  0  0  0
 30 29  1  0  0  0  0
 31 32  1  0  0  0  0
 32  2  1  0  0  0  0
 33 34  1  0  0  0  0
 33 31  2  0  0  0  0
 34 71  1  0  0  0  0
 35 36  2  0  0  0  0
 35 34  1  0  0  0  0
 36 73  1  0  0  0  0
 36 37  1  0  0  0  0
 37 38  1  0  0  0  0
 38 39  1  0  0  0  0
 40 38  1  0  0  0  0
 41  1  1  0  0  0  0
 42 74  1  0  0  0  0
 42 37  2  0  0  0  0
 43 48  2  0  0  0  0
 43 42  1  0  0  0  0
 44 43  1  0  0  0  0
 44 47  1  0  0  0  0
 45 44  1  0  0  0  0
 46 44  1  0  0  0  0
 48 35  1  0  0  0  0
 49 33  1  0  0  0  0
 50 49  2  0  0  0  0
 50 51  1  0  0  0  0
 51 30  2  0  0  0  0
 52 77  1  0  0  0  0
 52 51  1  0  0  0  0
 52 78  1  0  0  0  0
 53 52  1  0  0  0  0
 54 55  1  0  0  0  0
 54 53  1  0  0  0  0
 55 84  1  0  0  0  0
 55 50  1  0  0  0  0
 58  7  1  0  0  0  0
 61 21  1  0  0  0  0
 63 25  1  0  0  0  0
 64 25  1  0  0  0  0
 66 26  1  0  0  0  0
 68 27  1  0  0  0  0
 70 28  1  0  0  0  0
 72 34  1  0  0  0  0
 75 48  1  0  0  0  0
 76 49  1  0  0  0  0
 79 53  1  0  0  0  0
 80 53  1  0  0  0  0
 81 54  1  0  0  0  0
 82 54  1  0  0  0  0
 83 55  1  0  0  0  0
M  RAD  1  38   2
M  END
$$$$
