O=P1(O)OC2=C([Si](C3=CC=CC=C3)(C4=CC=CC=C4)C5=CC=CC=C5)C=C6C(CCCC6)=C2C7=C(O1)C([Si](C8=CC=CC=C8)(C9=CC=CC=C9)C%10=CC=CC=C%10)=CC%11=C7CCCC%11
 OpenBabel09032010383D

112122  0  0  0  0  0  0  0  0999 V2000
    1.0459    2.6767    0.1748 O   0  0  0  0  0  0  0  0  0  0  0  0
    0.1929    1.5788   -0.3849 P   0  0  0  0  0  0  0  0  0  0  0  0
   -0.5813    2.0139   -1.7274 O   0  0  0  0  0  0  0  0  0  0  0  0
   -0.9578    1.0537    0.6170 O   0  0  0  0  0  0  0  0  0  0  0  0
   -1.5388   -0.1794    0.4629 C   0  0  0  0  0  0  0  0  0  0  0  0
   -2.9367   -0.2298    0.2841 C   0  0  0  0  0  0  0  0  0  0  0  0
   -4.0968    1.2460    0.2694 Si  0  0  0  0  0  0  0  0  0  0  0  0
   -3.2507    2.9059    0.2361 C   0  0  0  0  0  0  0  0  0  0  0  0
   -3.2325    3.7205   -0.9125 C   0  0  0  0  0  0  0  0  0  0  0  0
   -2.5704    4.9526   -0.9203 C   0  0  0  0  0  0  0  0  0  0  0  0
   -1.9152    5.4023    0.2206 C   0  0  0  0  0  0  0  0  0  0  0  0
   -1.9357    4.6302    1.3764 C   0  0  0  0  0  0  0  0  0  0  0  0
   -2.6021    3.4021    1.3872 C   0  0  0  0  0  0  0  0  0  0  0  0
   -5.1569    1.0455   -1.2719 C   0  0  0  0  0  0  0  0  0  0  0  0
   -4.5494    0.7638   -2.5152 C   0  0  0  0  0  0  0  0  0  0  0  0
   -5.3114    0.6032   -3.6754 C   0  0  0  0  0  0  0  0  0  0  0  0
   -6.6964    0.7183   -3.6211 C   0  0  0  0  0  0  0  0  0  0  0  0
   -7.3197    0.9909   -2.4072 C   0  0  0  0  0  0  0  0  0  0  0  0
   -6.5598    1.1506   -1.2441 C   0  0  0  0  0  0  0  0  0  0  0  0
   -5.2010    1.2290    1.7911 C   0  0  0  0  0  0  0  0  0  0  0  0
   -5.2583    0.1351    2.6752 C   0  0  0  0  0  0  0  0  0  0  0  0
   -6.1019    0.1482    3.7921 C   0  0  0  0  0  0  0  0  0  0  0  0
   -6.9011    1.2562    4.0565 C   0  0  0  0  0  0  0  0  0  0  0  0
   -6.8514    2.3579    3.2095 C   0  0  0  0  0  0  0  0  0  0  0  0
   -6.0100    2.3467    2.0929 C   0  0  0  0  0  0  0  0  0  0  0  0
   -3.4976   -1.5071    0.0890 C   0  0  0  0  0  0  0  0  0  0  0  0
   -2.7224   -2.6747    0.0740 C   0  0  0  0  0  0  0  0  0  0  0  0
   -1.3307   -2.5927    0.2865 C   0  0  0  0  0  0  0  0  0  0  0  0
   -0.4849   -3.8537    0.1447 C   0  0  0  0  0  0  0  0  0  0  0  0
   -1.1795   -4.9892   -0.6048 C   0  0  0  0  0  0  0  0  0  0  0  0
   -2.5663   -5.2128   -0.0271 C   0  0  0  0  0  0  0  0  0  0  0  0
   -3.4240   -3.9741   -0.2510 C   0  0  0  0  0  0  0  0  0  0  0  0
   -0.7121   -1.3375    0.5738 C   0  0  0  0  0  0  0  0  0  0  0  0
    0.6860   -1.2441    0.9169 C   0  0  0  0  0  0  0  0  0  0  0  0
    1.5681   -0.5048    0.0907 C   0  0  0  0  0  0  0  0  0  0  0  0
    0.9927    0.2669   -0.8818 O   0  0  0  0  0  0  0  0  0  0  0  0
    2.9711   -0.5258    0.1969 C   0  0  0  0  0  0  0  0  0  0  0  0
    4.1580    0.3145   -0.9895 Si  0  0  0  0  0  0  0  0  0  0  0  0
    4.9713   -0.9799   -2.0811 C   0  0  0  0  0  0  0  0  0  0  0  0
    4.8754   -2.3594   -1.8178 C   0  0  0  0  0  0  0  0  0  0  0  0
    5.4830   -3.3000   -2.6554 C   0  0  0  0  0  0  0  0  0  0  0  0
    6.1955   -2.8844   -3.7755 C   0  0  0  0  0  0  0  0  0  0  0  0
    6.3016   -1.5279   -4.0623 C   0  0  0  0  0  0  0  0  0  0  0  0
    5.6965   -0.5863   -3.2263 C   0  0  0  0  0  0  0  0  0  0  0  0
    5.4536    1.1707    0.0526 C   0  0  0  0  0  0  0  0  0  0  0  0
    6.8329    0.9911   -0.1618 C   0  0  0  0  0  0  0  0  0  0  0  0
    7.7804    1.6359    0.6397 C   0  0  0  0  0  0  0  0  0  0  0  0
    7.3716    2.4721    1.6737 C   0  0  0  0  0  0  0  0  0  0  0  0
    6.0145    2.6637    1.9106 C   0  0  0  0  0  0  0  0  0  0  0  0
    5.0656    2.0195    1.1118 C   0  0  0  0  0  0  0  0  0  0  0  0
    3.3352    1.5345   -2.1414 C   0  0  0  0  0  0  0  0  0  0  0  0
    2.5394    1.0777   -3.2147 C   0  0  0  0  0  0  0  0  0  0  0  0
    1.8314    1.9669   -4.0258 C   0  0  0  0  0  0  0  0  0  0  0  0
    1.9249    3.3354   -3.8054 C   0  0  0  0  0  0  0  0  0  0  0  0
    2.7466    3.8171   -2.7928 C   0  0  0  0  0  0  0  0  0  0  0  0
    3.4450    2.9270   -1.9705 C   0  0  0  0  0  0  0  0  0  0  0  0
    3.4963   -1.2504    1.2817 C   0  0  0  0  0  0  0  0  0  0  0  0
    2.6734   -1.8936    2.2192 C   0  0  0  0  0  0  0  0  0  0  0  0
    1.2715   -1.8934    2.0442 C   0  0  0  0  0  0  0  0  0  0  0  0
    0.3932   -2.4037    3.1791 C   0  0  0  0  0  0  0  0  0  0  0  0
    1.0871   -3.4211    4.0806 C   0  0  0  0  0  0  0  0  0  0  0  0
    2.4222   -2.8702    4.5532 C   0  0  0  0  0  0  0  0  0  0  0  0
    3.3410   -2.6227    3.3635 C   0  0  0  0  0  0  0  0  0  0  0  0
    0.0103    2.5759   -2.2648 H   0  0  0  0  0  0  0  0  0  0  0  0
   -3.7246    3.4100   -1.8324 H   0  0  0  0  0  0  0  0  0  0  0  0
   -2.5644    5.5569   -1.8234 H   0  0  0  0  0  0  0  0  0  0  0  0
   -1.3877    6.3516    0.2104 H   0  0  0  0  0  0  0  0  0  0  0  0
   -1.4246    4.9761    2.2711 H   0  0  0  0  0  0  0  0  0  0  0  0
   -2.5832    2.8210    2.3098 H   0  0  0  0  0  0  0  0  0  0  0  0
   -3.4658    0.6668   -2.5966 H   0  0  0  0  0  0  0  0  0  0  0  0
   -4.8208    0.3869   -4.6208 H   0  0  0  0  0  0  0  0  0  0  0  0
   -7.2906    0.5938   -4.5223 H   0  0  0  0  0  0  0  0  0  0  0  0
   -8.4024    1.0785   -2.3606 H   0  0  0  0  0  0  0  0  0  0  0  0
   -7.0947    1.3536   -0.3182 H   0  0  0  0  0  0  0  0  0  0  0  0
   -4.6438   -0.7498    2.5207 H   0  0  0  0  0  0  0  0  0  0  0  0
   -6.1309   -0.7109    4.4580 H   0  0  0  0  0  0  0  0  0  0  0  0
   -7.5571    1.2632    4.9236 H   0  0  0  0  0  0  0  0  0  0  0  0
   -7.4660    3.2307    3.4156 H   0  0  0  0  0  0  0  0  0  0  0  0
   -5.9954    3.2318    1.4557 H   0  0  0  0  0  0  0  0  0  0  0  0
   -4.5719   -1.6100   -0.0851 H   0  0  0  0  0  0  0  0  0  0  0  0
    0.4423   -3.6237   -0.3934 H   0  0  0  0  0  0  0  0  0  0  0  0
   -0.2159   -4.2224    1.1391 H   0  0  0  0  0  0  0  0  0  0  0  0
   -0.5824   -5.9041   -0.5208 H   0  0  0  0  0  0  0  0  0  0  0  0
   -1.2530   -4.7483   -1.6728 H   0  0  0  0  0  0  0  0  0  0  0  0
   -3.0409   -6.0815   -0.4969 H   0  0  0  0  0  0  0  0  0  0  0  0
   -2.4906   -5.4287    1.0462 H   0  0  0  0  0  0  0  0  0  0  0  0
   -3.7283   -3.9370   -1.3050 H   0  0  0  0  0  0  0  0  0  0  0  0
   -4.3354   -4.0634    0.3526 H   0  0  0  0  0  0  0  0  0  0  0  0
    4.3196   -2.7359   -0.9614 H   0  0  0  0  0  0  0  0  0  0  0  0
    5.3939   -4.3600   -2.4316 H   0  0  0  0  0  0  0  0  0  0  0  0
    6.6642   -3.6172   -4.4258 H   0  0  0  0  0  0  0  0  0  0  0  0
    6.8525   -1.1984   -4.9392 H   0  0  0  0  0  0  0  0  0  0  0  0
    5.7956    0.4680   -3.4870 H   0  0  0  0  0  0  0  0  0  0  0  0
    7.2022    0.3416   -0.9536 H   0  0  0  0  0  0  0  0  0  0  0  0
    8.8400    1.4805    0.4530 H   0  0  0  0  0  0  0  0  0  0  0  0
    8.1089    2.9731    2.2946 H   0  0  0  0  0  0  0  0  0  0  0  0
    5.6892    3.3152    2.7176 H   0  0  0  0  0  0  0  0  0  0  0  0
    4.0102    2.1954    1.3287 H   0  0  0  0  0  0  0  0  0  0  0  0
    2.4194    0.0094   -3.4023 H   0  0  0  0  0  0  0  0  0  0  0  0
    1.1759    1.5859   -4.8033 H   0  0  0  0  0  0  0  0  0  0  0  0
    1.3378    4.0206   -4.4070 H   0  0  0  0  0  0  0  0  0  0  0  0
    2.8324    4.8879   -2.6209 H   0  0  0  0  0  0  0  0  0  0  0  0
    4.0505    3.3523   -1.1715 H   0  0  0  0  0  0  0  0  0  0  0  0
    4.5775   -1.3021    1.4307 H   0  0  0  0  0  0  0  0  0  0  0  0
   -0.5353   -2.8529    2.8227 H   0  0  0  0  0  0  0  0  0  0  0  0
    0.1048   -1.5317    3.7813 H   0  0  0  0  0  0  0  0  0  0  0  0
    0.4483   -3.6440    4.9425 H   0  0  0  0  0  0  0  0  0  0  0  0
    1.2414   -4.3624    3.5385 H   0  0  0  0  0  0  0  0  0  0  0  0
    2.2609   -1.9334    5.1016 H   0  0  0  0  0  0  0  0  0  0  0  0
    2.8978   -3.5710    5.2484 H   0  0  0  0  0  0  0  0  0  0  0  0
    4.2136   -2.0561    3.7106 H   0  0  0  0  0  0  0  0  0  0  0  0
    3.7055   -3.5843    2.9802 H   0  0  0  0  0  0  0  0  0  0  0  0
  2  1  2  0  0  0  0
  2  4  1  0  0  0  0
  3  2  1  0  0  0  0
  5 33  1  0  0  0  0
  5  4  1  0  0  0  0
  6  5  2  0  0  0  0
  7  6  1  0  0  0  0
  7 20  1  0  0  0  0
  8  7  1  0  0  0  0
  8 13  2  0  0  0  0
  9  8  1  0  0  0  0
 10  9  2  0  0  0  0
 10 11  1  0  0  0  0
 11 12  2  0  0  0  0
 12 13  1  0  0  0  0
 12 68  1  0  0  0  0
 13 69  1  0  0  0  0
 14 19  1  0  0  0  0
 14  7  1  0  0  0  0
 15 14  2  0  0  0  0
 16 17  2  0  0  0  0
 16 15  1  0  0  0  0
 17 18  1  0  0  0  0
 18 73  1  0  0  0  0
 18 19  2  0  0  0  0
 19 74  1  0  0  0  0
 20 25  2  0  0  0  0
 20 21  1  0  0  0  0
 21 22  2  0  0  0  0
 22 23  1  0  0  0  0
 22 76  1  0  0  0  0
 23 77  1  0  0  0  0
 24 78  1  0  0  0  0
 24 23  2  0  0  0  0
 25 24  1  0  0  0  0
 26  6  1  0  0  0  0
 27 26  2  0  0  0  0
 27 28  1  0  0  0  0
 28 33  2  0  0  0  0
 29 28  1  0  0  0  0
 29 82  1  0  0  0  0
 30 83  1  0  0  0  0
 30 31  1  0  0  0  0
 30 29  1  0  0  0  0
 31 86  1  0  0  0  0
 32 31  1  0  0  0  0
 32 27  1  0  0  0  0
 32 88  1  0  0  0  0
 33 34  1  0  0  0  0
 34 59  2  0  0  0  0
 35 37  2  0  0  0  0
 35 34  1  0  0  0  0
 36  2  1  0  0  0  0
 36 35  1  0  0  0  0
 37 57  1  0  0  0  0
 38 45  1  0  0  0  0
 38 37  1  0  0  0  0
 39 40  1  0  0  0  0
 39 38  1  0  0  0  0
 40 89  1  0  0  0  0
 41 90  1  0  0  0  0
 41 40  2  0  0  0  0
 42 41  1  0  0  0  0
 43 42  2  0  0  0  0
 43 44  1  0  0  0  0
 44 39  2  0  0  0  0
 45 50  1  0  0  0  0
 46 45  2  0  0  0  0
 46 47  1  0  0  0  0
 47 48  2  0  0  0  0
 48 49  1  0  0  0  0
 48 96  1  0  0  0  0
 49 97  1  0  0  0  0
 50 98  1  0  0  0  0
 50 49  2  0  0  0  0
 51 56  1  0  0  0  0
 51 38  1  0  0  0  0
 52 51  2  0  0  0  0
 53 54  2  0  0  0  0
 53 52  1  0  0  0  0
 54 55  1  0  0  0  0
 55102  1  0  0  0  0
 55 56  2  0  0  0  0
 56103  1  0  0  0  0
 57104  1  0  0  0  0
 57 58  2  0  0  0  0
 58 63  1  0  0  0  0
 59 58  1  0  0  0  0
 59 60  1  0  0  0  0
 60106  1  0  0  0  0
 60 61  1  0  0  0  0
 61 62  1  0  0  0  0
 61107  1  0  0  0  0
 62109  1  0  0  0  0
 62110  1  0  0  0  0
 63111  1  0  0  0  0
 63 62  1  0  0  0  0
 64  3  1  0  0  0  0
 65  9  1  0  0  0  0
 66 10  1  0  0  0  0
 67 11  1  0  0  0  0
 70 15  1  0  0  0  0
 71 16  1  0  0  0  0
 72 17  1  0  0  0  0
 75 21  1  0  0  0  0
 79 25  1  0  0  0  0
 80 26  1  0  0  0  0
 81 29  1  0  0  0  0
 84 30  1  0  0  0  0
 85 31  1  0  0  0  0
 87 32  1  0  0  0  0
 91 42  1  0  0  0  0
 92 43  1  0  0  0  0
 93 44  1  0  0  0  0
 94 46  1  0  0  0  0
 95 47  1  0  0  0  0
 99 52  1  0  0  0  0
100 53  1  0  0  0  0
101 54  1  0  0  0  0
105 60  1  0  0  0  0
108 61  1  0  0  0  0
112 63  1  0  0  0  0
M  END
$$$$
