O=P1(O)OC2=C(C3=CC=C(C(C)(C)C)C=C3)C=C4C(C=CC=C4)=C2C5=C(O1)C(C6=CC=C(C(C)(C)C)C=C6)=CC7=C5C=CC=C7
 OpenBabel09032010373D

 82 88  0  0  0  0  0  0  0  0999 V2000
    0.5507    1.5393    1.3561 O   0  0  0  0  0  0  0  0  0  0  0  0
   -0.0194    0.6555    0.2911 P   0  0  0  0  0  0  0  0  0  0  0  0
   -0.8645    1.4971   -0.7890 O   0  0  0  0  0  0  0  0  0  0  0  0
    1.0330   -0.1679   -0.6091 O   0  0  0  0  0  0  0  0  0  0  0  0
    1.5545   -1.3257   -0.0726 C   0  0  0  0  0  0  0  0  0  0  0  0
    2.9219   -1.3197    0.2502 C   0  0  0  0  0  0  0  0  0  0  0  0
    3.7768   -0.1468    0.0327 C   0  0  0  0  0  0  0  0  0  0  0  0
    4.5770   -0.0472   -1.1108 C   0  0  0  0  0  0  0  0  0  0  0  0
    5.3998    1.0670   -1.3227 C   0  0  0  0  0  0  0  0  0  0  0  0
    5.4522    2.1214   -0.3980 C   0  0  0  0  0  0  0  0  0  0  0  0
    6.3374    3.3631   -0.5998 C   0  0  0  0  0  0  0  0  0  0  0  0
    5.4530    4.6277   -0.6514 C   0  0  0  0  0  0  0  0  0  0  0  0
    7.1681    3.3327   -1.9027 C   0  0  0  0  0  0  0  0  0  0  0  0
    7.3337    3.4875    0.5732 C   0  0  0  0  0  0  0  0  0  0  0  0
    4.6442    2.0087    0.7490 C   0  0  0  0  0  0  0  0  0  0  0  0
    3.8241    0.8951    0.9623 C   0  0  0  0  0  0  0  0  0  0  0  0
    3.4757   -2.4855    0.7815 C   0  0  0  0  0  0  0  0  0  0  0  0
    2.6956   -3.6205    1.0188 C   0  0  0  0  0  0  0  0  0  0  0  0
    1.3159   -3.6215    0.6798 C   0  0  0  0  0  0  0  0  0  0  0  0
    0.5838   -4.7818    1.0395 C   0  0  0  0  0  0  0  0  0  0  0  0
    1.1834   -5.8958    1.6336 C   0  0  0  0  0  0  0  0  0  0  0  0
    2.5411   -5.8833    1.9086 C   0  0  0  0  0  0  0  0  0  0  0  0
    3.2900   -4.7490    1.6089 C   0  0  0  0  0  0  0  0  0  0  0  0
    0.7208   -2.4665    0.0532 C   0  0  0  0  0  0  0  0  0  0  0  0
   -0.6365   -2.4323   -0.4565 C   0  0  0  0  0  0  0  0  0  0  0  0
   -1.5254   -1.4063   -0.0491 C   0  0  0  0  0  0  0  0  0  0  0  0
   -1.0785   -0.4360    0.8205 O   0  0  0  0  0  0  0  0  0  0  0  0
   -2.8789   -1.3367   -0.4279 C   0  0  0  0  0  0  0  0  0  0  0  0
   -3.7679   -0.2511    0.0198 C   0  0  0  0  0  0  0  0  0  0  0  0
   -4.3315    0.6408   -0.9016 C   0  0  0  0  0  0  0  0  0  0  0  0
   -5.1663    1.6866   -0.4847 C   0  0  0  0  0  0  0  0  0  0  0  0
   -5.4712    1.8794    0.8710 C   0  0  0  0  0  0  0  0  0  0  0  0
   -6.3837    3.0150    1.3662 C   0  0  0  0  0  0  0  0  0  0  0  0
   -7.6048    2.4181    2.0986 C   0  0  0  0  0  0  0  0  0  0  0  0
   -6.9257    3.9187    0.2357 C   0  0  0  0  0  0  0  0  0  0  0  0
   -5.6008    3.9223    2.3398 C   0  0  0  0  0  0  0  0  0  0  0  0
   -4.9037    0.9772    1.7896 C   0  0  0  0  0  0  0  0  0  0  0  0
   -4.0694   -0.0670    1.3730 C   0  0  0  0  0  0  0  0  0  0  0  0
   -3.3672   -2.3335   -1.2741 C   0  0  0  0  0  0  0  0  0  0  0  0
   -2.5384   -3.3463   -1.7656 C   0  0  0  0  0  0  0  0  0  0  0  0
   -1.1689   -3.3959   -1.3893 C   0  0  0  0  0  0  0  0  0  0  0  0
   -0.3834   -4.3924   -2.0238 C   0  0  0  0  0  0  0  0  0  0  0  0
   -0.9237   -5.3256   -2.9129 C   0  0  0  0  0  0  0  0  0  0  0  0
   -2.2739   -5.2840   -3.2186 C   0  0  0  0  0  0  0  0  0  0  0  0
   -3.0734   -4.2948   -2.6539 C   0  0  0  0  0  0  0  0  0  0  0  0
   -1.4281    2.1517   -0.3378 H   0  0  0  0  0  0  0  0  0  0  0  0
    4.5601   -0.8396   -1.8566 H   0  0  0  0  0  0  0  0  0  0  0  0
    5.9897    1.0812   -2.2347 H   0  0  0  0  0  0  0  0  0  0  0  0
    6.0568    5.5253   -0.8294 H   0  0  0  0  0  0  0  0  0  0  0  0
    4.9066    4.7897    0.2841 H   0  0  0  0  0  0  0  0  0  0  0  0
    4.7125    4.5585   -1.4571 H   0  0  0  0  0  0  0  0  0  0  0  0
    7.8498    2.4744   -1.9266 H   0  0  0  0  0  0  0  0  0  0  0  0
    7.7832    4.2354   -2.0003 H   0  0  0  0  0  0  0  0  0  0  0  0
    6.5259    3.2838   -2.7898 H   0  0  0  0  0  0  0  0  0  0  0  0
    7.9578    2.5899    0.6575 H   0  0  0  0  0  0  0  0  0  0  0  0
    8.0012    4.3462    0.4355 H   0  0  0  0  0  0  0  0  0  0  0  0
    6.8272    3.6272    1.5345 H   0  0  0  0  0  0  0  0  0  0  0  0
    4.6338    2.7954    1.5004 H   0  0  0  0  0  0  0  0  0  0  0  0
    3.2112    0.8565    1.8613 H   0  0  0  0  0  0  0  0  0  0  0  0
    4.5349   -2.4910    1.0383 H   0  0  0  0  0  0  0  0  0  0  0  0
   -0.4904   -4.8307    0.8695 H   0  0  0  0  0  0  0  0  0  0  0  0
    0.5817   -6.7657    1.8834 H   0  0  0  0  0  0  0  0  0  0  0  0
    3.0152   -6.7446    2.3711 H   0  0  0  0  0  0  0  0  0  0  0  0
    4.3505   -4.7480    1.8552 H   0  0  0  0  0  0  0  0  0  0  0  0
   -4.1146    0.5356   -1.9637 H   0  0  0  0  0  0  0  0  0  0  0  0
   -5.5666    2.3398   -1.2553 H   0  0  0  0  0  0  0  0  0  0  0  0
   -8.2899    3.2063    2.4320 H   0  0  0  0  0  0  0  0  0  0  0  0
   -8.1670    1.7429    1.4425 H   0  0  0  0  0  0  0  0  0  0  0  0
   -7.3166    1.8474    2.9882 H   0  0  0  0  0  0  0  0  0  0  0  0
   -6.1134    4.4099   -0.3126 H   0  0  0  0  0  0  0  0  0  0  0  0
   -7.5683    4.7113    0.6374 H   0  0  0  0  0  0  0  0  0  0  0  0
   -7.5275    3.3495   -0.4824 H   0  0  0  0  0  0  0  0  0  0  0  0
   -5.2709    3.3832    3.2346 H   0  0  0  0  0  0  0  0  0  0  0  0
   -4.7079    4.3391    1.8589 H   0  0  0  0  0  0  0  0  0  0  0  0
   -6.2183    4.7614    2.6812 H   0  0  0  0  0  0  0  0  0  0  0  0
   -5.1041    1.0722    2.8550 H   0  0  0  0  0  0  0  0  0  0  0  0
   -3.6525   -0.7390    2.1213 H   0  0  0  0  0  0  0  0  0  0  0  0
   -4.4156   -2.3034   -1.5702 H   0  0  0  0  0  0  0  0  0  0  0  0
    0.6883   -4.4498   -1.8418 H   0  0  0  0  0  0  0  0  0  0  0  0
   -0.2813   -6.0760   -3.3661 H   0  0  0  0  0  0  0  0  0  0  0  0
   -2.7024   -6.0049   -3.9091 H   0  0  0  0  0  0  0  0  0  0  0  0
   -4.1264   -4.2613   -2.9282 H   0  0  0  0  0  0  0  0  0  0  0  0
  2 27  1  0  0  0  0
  2  1  2  0  0  0  0
  3 46  1  0  0  0  0
  3  2  1  0  0  0  0
  4  5  1  0  0  0  0
  4  2  1  0  0  0  0
  5 24  2  0  0  0  0
  5  6  1  0  0  0  0
  6 17  2  0  0  0  0
  7  6  1  0  0  0  0
  7 16  2  0  0  0  0
  8  7  1  0  0  0  0
  9  8  2  0  0  0  0
  9 10  1  0  0  0  0
 10 15  2  0  0  0  0
 11 10  1  0  0  0  0
 11 14  1  0  0  0  0
 12 11  1  0  0  0  0
 12 50  1  0  0  0  0
 13 11  1  0  0  0  0
 14 55  1  0  0  0  0
 14 57  1  0  0  0  0
 15 16  1  0  0  0  0
 15 58  1  0  0  0  0
 16 59  1  0  0  0  0
 17 18  1  0  0  0  0
 17 60  1  0  0  0  0
 18 23  1  0  0  0  0
 19 18  2  0  0  0  0
 19 20  1  0  0  0  0
 20 21  2  0  0  0  0
 21 62  1  0  0  0  0
 21 22  1  0  0  0  0
 22 63  1  0  0  0  0
 23 64  1  0  0  0  0
 23 22  2  0  0  0  0
 24 19  1  0  0  0  0
 25 26  2  0  0  0  0
 25 24  1  0  0  0  0
 26 27  1  0  0  0  0
 28 26  1  0  0  0  0
 28 29  1  0  0  0  0
 29 38  2  0  0  0  0
 30 31  2  0  0  0  0
 30 29  1  0  0  0  0
 31 32  1  0  0  0  0
 32 33  1  0  0  0  0
 32 37  2  0  0  0  0
 33 34  1  0  0  0  0
 33 36  1  0  0  0  0
 34 67  1  0  0  0  0
 34 69  1  0  0  0  0
 35 71  1  0  0  0  0
 35 33  1  0  0  0  0
 36 75  1  0  0  0  0
 36 73  1  0  0  0  0
 37 76  1  0  0  0  0
 38 37  1  0  0  0  0
 38 77  1  0  0  0  0
 39 28  2  0  0  0  0
 40 41  1  0  0  0  0
 40 39  1  0  0  0  0
 41 25  1  0  0  0  0
 42 79  1  0  0  0  0
 42 41  2  0  0  0  0
 43 42  1  0  0  0  0
 44 43  2  0  0  0  0
 44 45  1  0  0  0  0
 45 40  2  0  0  0  0
 47  8  1  0  0  0  0
 48  9  1  0  0  0  0
 49 12  1  0  0  0  0
 51 12  1  0  0  0  0
 52 13  1  0  0  0  0
 53 13  1  0  0  0  0
 54 13  1  0  0  0  0
 56 14  1  0  0  0  0
 61 20  1  0  0  0  0
 65 30  1  0  0  0  0
 66 31  1  0  0  0  0
 68 34  1  0  0  0  0
 70 35  1  0  0  0  0
 72 35  1  0  0  0  0
 74 36  1  0  0  0  0
 78 39  1  0  0  0  0
 80 43  1  0  0  0  0
 81 44  1  0  0  0  0
 82 45  1  0  0  0  0
M  END
$$$$
