O=P1(O)OC2=C(C3=CC(C(F)(F)F)=CC(C(F)(F)F)=C3)C=C4C(CCCC4)=C2C5=C(O1)C(C6=CC(C(F)(F)F)=CC(C(F)(F)F)=C6)=CC7=C5CCCC7
 OpenBabel09032010383D

 78 84  0  0  0  0  0  0  0  0999 V2000
    0.4184   -3.1909    0.6462 O   0  0  0  0  0  0  0  0  0  0  0  0
   -0.1227   -1.8185    0.9058 P   0  0  0  0  0  0  0  0  0  0  0  0
   -0.9769   -1.8189    2.2695 O   0  0  0  0  0  0  0  0  0  0  0  0
   -1.1519   -1.2776   -0.2088 O   0  0  0  0  0  0  0  0  0  0  0  0
   -1.5704    0.0326   -0.1420 C   0  0  0  0  0  0  0  0  0  0  0  0
   -2.9469    0.2560    0.0860 C   0  0  0  0  0  0  0  0  0  0  0  0
   -3.9300   -0.8416    0.1779 C   0  0  0  0  0  0  0  0  0  0  0  0
   -4.7343   -0.9981    1.3190 C   0  0  0  0  0  0  0  0  0  0  0  0
   -5.7048   -2.0116    1.4021 C   0  0  0  0  0  0  0  0  0  0  0  0
   -6.5496   -2.1622    2.6448 C   0  0  0  0  0  0  0  0  0  0  0  0
   -7.7760   -2.6993    2.3934 F   0  0  0  0  0  0  0  0  0  0  0  0
   -5.9675   -2.9733    3.5694 F   0  0  0  0  0  0  0  0  0  0  0  0
   -6.7855   -0.9789    3.2766 F   0  0  0  0  0  0  0  0  0  0  0  0
   -5.8532   -2.8995    0.3256 C   0  0  0  0  0  0  0  0  0  0  0  0
   -5.0678   -2.7686   -0.8294 C   0  0  0  0  0  0  0  0  0  0  0  0
   -5.2181   -3.7346   -1.9808 C   0  0  0  0  0  0  0  0  0  0  0  0
   -4.3599   -4.7861   -1.8887 F   0  0  0  0  0  0  0  0  0  0  0  0
   -4.9845   -3.1605   -3.1933 F   0  0  0  0  0  0  0  0  0  0  0  0
   -6.4662   -4.2758   -2.0612 F   0  0  0  0  0  0  0  0  0  0  0  0
   -4.1114   -1.7405   -0.8867 C   0  0  0  0  0  0  0  0  0  0  0  0
   -3.3787    1.5806    0.2103 C   0  0  0  0  0  0  0  0  0  0  0  0
   -2.4694    2.6361    0.1442 C   0  0  0  0  0  0  0  0  0  0  0  0
   -1.1023    2.3888   -0.1216 C   0  0  0  0  0  0  0  0  0  0  0  0
   -0.1961    3.6083   -0.0570 C   0  0  0  0  0  0  0  0  0  0  0  0
   -0.5242    4.4485    1.1791 C   0  0  0  0  0  0  0  0  0  0  0  0
   -2.0074    4.8205    1.2929 C   0  0  0  0  0  0  0  0  0  0  0  0
   -2.9229    4.0619    0.3308 C   0  0  0  0  0  0  0  0  0  0  0  0
   -0.6215    1.0679   -0.3429 C   0  0  0  0  0  0  0  0  0  0  0  0
    0.7325    0.7710   -0.7391 C   0  0  0  0  0  0  0  0  0  0  0  0
    1.5463   -0.0762    0.0562 C   0  0  0  0  0  0  0  0  0  0  0  0
    0.9879   -0.6783    1.1618 O   0  0  0  0  0  0  0  0  0  0  0  0
    2.9173   -0.2855   -0.1837 C   0  0  0  0  0  0  0  0  0  0  0  0
    3.7838   -1.0790    0.7035 C   0  0  0  0  0  0  0  0  0  0  0  0
    4.7878   -0.4515    1.4616 C   0  0  0  0  0  0  0  0  0  0  0  0
    5.6575   -1.1870    2.2847 C   0  0  0  0  0  0  0  0  0  0  0  0
    6.7615   -0.4888    3.0449 C   0  0  0  0  0  0  0  0  0  0  0  0
    6.4064    0.7494    3.4865 F   0  0  0  0  0  0  0  0  0  0  0  0
    7.8758   -0.3093    2.2832 F   0  0  0  0  0  0  0  0  0  0  0  0
    7.1699   -1.1750    4.1487 F   0  0  0  0  0  0  0  0  0  0  0  0
    5.5114   -2.5812    2.3454 C   0  0  0  0  0  0  0  0  0  0  0  0
    4.5226   -3.2372    1.5944 C   0  0  0  0  0  0  0  0  0  0  0  0
    4.3547   -4.7366    1.6780 C   0  0  0  0  0  0  0  0  0  0  0  0
    3.4180   -5.1022    2.5950 F   0  0  0  0  0  0  0  0  0  0  0  0
    3.9779   -5.3017    0.4988 F   0  0  0  0  0  0  0  0  0  0  0  0
    5.5019   -5.3765    2.0433 F   0  0  0  0  0  0  0  0  0  0  0  0
    3.6701   -2.4746    0.7782 C   0  0  0  0  0  0  0  0  0  0  0  0
    3.4749    0.3076   -1.3199 C   0  0  0  0  0  0  0  0  0  0  0  0
    2.7032    1.0719   -2.2042 C   0  0  0  0  0  0  0  0  0  0  0  0
    1.3325    1.2885   -1.9321 C   0  0  0  0  0  0  0  0  0  0  0  0
    0.4904    2.0320   -2.9602 C   0  0  0  0  0  0  0  0  0  0  0  0
    1.1005    2.0542   -4.3603 C   0  0  0  0  0  0  0  0  0  0  0  0
    2.5368    2.5426   -4.2798 C   0  0  0  0  0  0  0  0  0  0  0  0
    3.3741    1.5631   -3.4676 C   0  0  0  0  0  0  0  0  0  0  0  0
   -0.8363   -2.6629    2.7373 H   0  0  0  0  0  0  0  0  0  0  0  0
   -4.6005   -0.3195    2.1629 H   0  0  0  0  0  0  0  0  0  0  0  0
   -6.5932   -3.6998    0.3855 H   0  0  0  0  0  0  0  0  0  0  0  0
   -3.4985   -1.6353   -1.7836 H   0  0  0  0  0  0  0  0  0  0  0  0
   -4.4333    1.7925    0.3790 H   0  0  0  0  0  0  0  0  0  0  0  0
    0.8607    3.3298   -0.0062 H   0  0  0  0  0  0  0  0  0  0  0  0
   -0.3412    4.2158   -0.9570 H   0  0  0  0  0  0  0  0  0  0  0  0
   -0.2375    3.8847    2.0771 H   0  0  0  0  0  0  0  0  0  0  0  0
    0.0869    5.3588    1.1836 H   0  0  0  0  0  0  0  0  0  0  0  0
   -2.1363    5.8977    1.1327 H   0  0  0  0  0  0  0  0  0  0  0  0
   -2.3299    4.6313    2.3251 H   0  0  0  0  0  0  0  0  0  0  0  0
   -2.9237    4.5520   -0.6510 H   0  0  0  0  0  0  0  0  0  0  0  0
   -3.9525    4.1049    0.7050 H   0  0  0  0  0  0  0  0  0  0  0  0
    4.8976    0.6327    1.4061 H   0  0  0  0  0  0  0  0  0  0  0  0
    6.1812   -3.1656    2.9789 H   0  0  0  0  0  0  0  0  0  0  0  0
    2.9155   -2.9858    0.1788 H   0  0  0  0  0  0  0  0  0  0  0  0
    4.5288    0.1421   -1.5441 H   0  0  0  0  0  0  0  0  0  0  0  0
    0.3687    3.0676   -2.6348 H   0  0  0  0  0  0  0  0  0  0  0  0
   -0.5033    1.5761   -3.0365 H   0  0  0  0  0  0  0  0  0  0  0  0
    0.5130    2.7159   -5.0066 H   0  0  0  0  0  0  0  0  0  0  0  0
    1.0676    1.0520   -4.8059 H   0  0  0  0  0  0  0  0  0  0  0  0
    2.9619    2.6493   -5.2840 H   0  0  0  0  0  0  0  0  0  0  0  0
    2.5644    3.5354   -3.8129 H   0  0  0  0  0  0  0  0  0  0  0  0
    3.5955    0.6867   -4.0905 H   0  0  0  0  0  0  0  0  0  0  0  0
    4.3300    2.0390   -3.2174 H   0  0  0  0  0  0  0  0  0  0  0  0
  1  2  2  0  0  0  0
  2 31  1  0  0  0  0
  2  3  1  0  0  0  0
  3 54  1  0  0  0  0
  4  5  1  0  0  0  0
  4  2  1  0  0  0  0
  5  6  1  0  0  0  0
  6  7  1  0  0  0  0
  6 21  2  0  0  0  0
  7  8  2  0  0  0  0
  8  9  1  0  0  0  0
  8 55  1  0  0  0  0
  9 10  1  0  0  0  0
 10 13  1  0  0  0  0
 10 12  1  0  0  0  0
 11 10  1  0  0  0  0
 14 56  1  0  0  0  0
 14  9  2  0  0  0  0
 15 14  1  0  0  0  0
 16 17  1  0  0  0  0
 16 15  1  0  0  0  0
 18 16  1  0  0  0  0
 19 16  1  0  0  0  0
 20 15  2  0  0  0  0
 20  7  1  0  0  0  0
 21 58  1  0  0  0  0
 22 21  1  0  0  0  0
 22 27  1  0  0  0  0
 23 24  1  0  0  0  0
 23 22  2  0  0  0  0
 24 59  1  0  0  0  0
 24 25  1  0  0  0  0
 25 62  1  0  0  0  0
 25 26  1  0  0  0  0
 25 61  1  0  0  0  0
 26 64  1  0  0  0  0
 27 66  1  0  0  0  0
 27 26  1  0  0  0  0
 28  5  2  0  0  0  0
 28 23  1  0  0  0  0
 29 28  1  0  0  0  0
 29 30  2  0  0  0  0
 30 31  1  0  0  0  0
 32 30  1  0  0  0  0
 32 33  1  0  0  0  0
 33 46  2  0  0  0  0
 33 34  1  0  0  0  0
 34 35  2  0  0  0  0
 35 40  1  0  0  0  0
 35 36  1  0  0  0  0
 36 37  1  0  0  0  0
 36 39  1  0  0  0  0
 38 36  1  0  0  0  0
 40 68  1  0  0  0  0
 41 42  1  0  0  0  0
 41 40  2  0  0  0  0
 42 45  1  0  0  0  0
 42 43  1  0  0  0  0
 44 42  1  0  0  0  0
 46 41  1  0  0  0  0
 47 32  2  0  0  0  0
 48 49  2  0  0  0  0
 48 47  1  0  0  0  0
 49 29  1  0  0  0  0
 50 71  1  0  0  0  0
 50 49  1  0  0  0  0
 51 52  1  0  0  0  0
 51 50  1  0  0  0  0
 52 76  1  0  0  0  0
 52 53  1  0  0  0  0
 53 78  1  0  0  0  0
 53 48  1  0  0  0  0
 57 20  1  0  0  0  0
 60 24  1  0  0  0  0
 63 26  1  0  0  0  0
 65 27  1  0  0  0  0
 67 34  1  0  0  0  0
 69 46  1  0  0  0  0
 70 47  1  0  0  0  0
 72 50  1  0  0  0  0
 73 51  1  0  0  0  0
 74 51  1  0  0  0  0
 75 52  1  0  0  0  0
 77 53  1  0  0  0  0
M  END
$$$$
