O=P1(O)OC2=C(C3=CC(C(C)(C)C)=CC(C(C)(C)C)=C3)C=C4C(CCCC4)=C2C5=C(O1)C(C6=CC(C(C)(C)C)=CC(C(C)(C)C)=C6)=CC7=C5CCCC7
 OpenBabel09032010373D

114120  0  0  0  0  0  0  0  0999 V2000
   -0.2068    1.3498    1.7518 O   0  0  0  0  0  0  0  0  0  0  0  0
    0.1511    0.2715    0.7772 P   0  0  0  0  0  0  0  0  0  0  0  0
    0.8907   -0.9598    1.5048 O   0  0  0  0  0  0  0  0  0  0  0  0
    1.2052    0.7173   -0.3572 O   0  0  0  0  0  0  0  0  0  0  0  0
    1.4514   -0.1396   -1.4075 C   0  0  0  0  0  0  0  0  0  0  0  0
    2.7357   -0.7234   -1.4588 C   0  0  0  0  0  0  0  0  0  0  0  0
    3.7430   -0.4752   -0.4148 C   0  0  0  0  0  0  0  0  0  0  0  0
    4.3439    0.7842   -0.2744 C   0  0  0  0  0  0  0  0  0  0  0  0
    5.2806    1.0470    0.7367 C   0  0  0  0  0  0  0  0  0  0  0  0
    5.9458    2.4256    0.9101 C   0  0  0  0  0  0  0  0  0  0  0  0
    5.4920    3.4758   -0.1295 C   0  0  0  0  0  0  0  0  0  0  0  0
    5.6076    2.9927    2.3060 C   0  0  0  0  0  0  0  0  0  0  0  0
    7.4775    2.2845    0.7747 C   0  0  0  0  0  0  0  0  0  0  0  0
    5.6026   -0.0099    1.6175 C   0  0  0  0  0  0  0  0  0  0  0  0
    5.0275   -1.2893    1.5158 C   0  0  0  0  0  0  0  0  0  0  0  0
    5.3696   -2.4379    2.4814 C   0  0  0  0  0  0  0  0  0  0  0  0
    4.0922   -2.8821    3.2270 C   0  0  0  0  0  0  0  0  0  0  0  0
    5.9375   -3.6343    1.6874 C   0  0  0  0  0  0  0  0  0  0  0  0
    6.4179   -2.0652    3.5542 C   0  0  0  0  0  0  0  0  0  0  0  0
    4.0976   -1.4943    0.4819 C   0  0  0  0  0  0  0  0  0  0  0  0
    3.0244   -1.5834   -2.5190 C   0  0  0  0  0  0  0  0  0  0  0  0
    2.0480   -1.8856   -3.4680 C   0  0  0  0  0  0  0  0  0  0  0  0
    0.7623   -1.2925   -3.3943 C   0  0  0  0  0  0  0  0  0  0  0  0
   -0.2521   -1.8239   -4.3941 C   0  0  0  0  0  0  0  0  0  0  0  0
   -0.1860   -3.3515   -4.4604 C   0  0  0  0  0  0  0  0  0  0  0  0
    1.2231   -3.8940   -4.7270 C   0  0  0  0  0  0  0  0  0  0  0  0
    2.3340   -2.8524   -4.5890 C   0  0  0  0  0  0  0  0  0  0  0  0
    0.4393   -0.3466   -2.3779 C   0  0  0  0  0  0  0  0  0  0  0  0
   -0.8281    0.3409   -2.2788 C   0  0  0  0  0  0  0  0  0  0  0  0
   -1.5919    0.2472   -1.0881 C   0  0  0  0  0  0  0  0  0  0  0  0
   -1.0679   -0.4323   -0.0092 O   0  0  0  0  0  0  0  0  0  0  0  0
   -2.8877    0.7721   -0.9472 C   0  0  0  0  0  0  0  0  0  0  0  0
   -3.6823    0.5898    0.2737 C   0  0  0  0  0  0  0  0  0  0  0  0
   -3.5958    1.5033    1.3315 C   0  0  0  0  0  0  0  0  0  0  0  0
   -4.3579    1.3569    2.5053 C   0  0  0  0  0  0  0  0  0  0  0  0
   -4.2251    2.3912    3.6392 C   0  0  0  0  0  0  0  0  0  0  0  0
   -2.7602    2.4560    4.1230 C   0  0  0  0  0  0  0  0  0  0  0  0
   -5.0973    2.0826    4.8776 C   0  0  0  0  0  0  0  0  0  0  0  0
   -4.6491    3.7818    3.1186 C   0  0  0  0  0  0  0  0  0  0  0  0
   -5.2231    0.2475    2.5837 C   0  0  0  0  0  0  0  0  0  0  0  0
   -5.3419   -0.6979    1.5463 C   0  0  0  0  0  0  0  0  0  0  0  0
   -6.2811   -1.9154    1.6318 C   0  0  0  0  0  0  0  0  0  0  0  0
   -7.3071   -1.8612    0.4788 C   0  0  0  0  0  0  0  0  0  0  0  0
   -5.4555   -3.2155    1.5170 C   0  0  0  0  0  0  0  0  0  0  0  0
   -7.0833   -2.0010    2.9501 C   0  0  0  0  0  0  0  0  0  0  0  0
   -4.5553   -0.4992    0.3968 C   0  0  0  0  0  0  0  0  0  0  0  0
   -3.4240    1.4869   -2.0187 C   0  0  0  0  0  0  0  0  0  0  0  0
   -2.6900    1.6989   -3.1932 C   0  0  0  0  0  0  0  0  0  0  0  0
   -1.3896    1.1509   -3.3204 C   0  0  0  0  0  0  0  0  0  0  0  0
   -0.5696    1.4940   -4.5554 C   0  0  0  0  0  0  0  0  0  0  0  0
   -1.0458    2.7502   -5.2824 C   0  0  0  0  0  0  0  0  0  0  0  0
   -2.5362    2.6409   -5.5579 C   0  0  0  0  0  0  0  0  0  0  0  0
   -3.3070    2.5940   -4.2448 C   0  0  0  0  0  0  0  0  0  0  0  0
    1.5641   -0.6236    2.1239 H   0  0  0  0  0  0  0  0  0  0  0  0
    4.0517    1.5598   -0.9784 H   0  0  0  0  0  0  0  0  0  0  0  0
    5.7298    3.1603   -1.1521 H   0  0  0  0  0  0  0  0  0  0  0  0
    4.4133    3.6621   -0.0708 H   0  0  0  0  0  0  0  0  0  0  0  0
    5.9935    4.4371    0.0353 H   0  0  0  0  0  0  0  0  0  0  0  0
    6.0386    3.9916    2.4418 H   0  0  0  0  0  0  0  0  0  0  0  0
    5.9961    2.3646    3.1150 H   0  0  0  0  0  0  0  0  0  0  0  0
    4.5232    3.0753    2.4457 H   0  0  0  0  0  0  0  0  0  0  0  0
    7.9061    1.6418    1.5514 H   0  0  0  0  0  0  0  0  0  0  0  0
    7.7492    1.8532   -0.1961 H   0  0  0  0  0  0  0  0  0  0  0  0
    7.9729    3.2590    0.8572 H   0  0  0  0  0  0  0  0  0  0  0  0
    6.3269    0.1884    2.4032 H   0  0  0  0  0  0  0  0  0  0  0  0
    3.6456   -2.0453    3.7772 H   0  0  0  0  0  0  0  0  0  0  0  0
    3.3280   -3.2716    2.5454 H   0  0  0  0  0  0  0  0  0  0  0  0
    4.3122   -3.6770    3.9492 H   0  0  0  0  0  0  0  0  0  0  0  0
    6.8283   -3.3426    1.1184 H   0  0  0  0  0  0  0  0  0  0  0  0
    6.2232   -4.4536    2.3575 H   0  0  0  0  0  0  0  0  0  0  0  0
    5.2118   -4.0426    0.9755 H   0  0  0  0  0  0  0  0  0  0  0  0
    6.6289   -2.9163    4.2129 H   0  0  0  0  0  0  0  0  0  0  0  0
    7.3699   -1.7653    3.1008 H   0  0  0  0  0  0  0  0  0  0  0  0
    6.0689   -1.2447    4.1920 H   0  0  0  0  0  0  0  0  0  0  0  0
    3.6137   -2.4644    0.3723 H   0  0  0  0  0  0  0  0  0  0  0  0
    4.0088   -2.0431   -2.5864 H   0  0  0  0  0  0  0  0  0  0  0  0
   -0.0338   -1.4083   -5.3841 H   0  0  0  0  0  0  0  0  0  0  0  0
   -1.2750   -1.5428   -4.1276 H   0  0  0  0  0  0  0  0  0  0  0  0
   -0.5423   -3.7635   -3.5065 H   0  0  0  0  0  0  0  0  0  0  0  0
   -0.8759   -3.7212   -5.2280 H   0  0  0  0  0  0  0  0  0  0  0  0
    1.4107   -4.7196   -4.0281 H   0  0  0  0  0  0  0  0  0  0  0  0
    1.2706   -4.3352   -5.7300 H   0  0  0  0  0  0  0  0  0  0  0  0
    3.2917   -3.3643   -4.4381 H   0  0  0  0  0  0  0  0  0  0  0  0
    2.4277   -2.2786   -5.5197 H   0  0  0  0  0  0  0  0  0  0  0  0
   -2.9068    2.3415    1.2336 H   0  0  0  0  0  0  0  0  0  0  0  0
   -2.0812    2.8103    3.3404 H   0  0  0  0  0  0  0  0  0  0  0  0
   -2.4070    1.4699    4.4468 H   0  0  0  0  0  0  0  0  0  0  0  0
   -2.6533    3.1438    4.9700 H   0  0  0  0  0  0  0  0  0  0  0  0
   -4.9633    2.8444    5.6551 H   0  0  0  0  0  0  0  0  0  0  0  0
   -6.1643    2.0660    4.6266 H   0  0  0  0  0  0  0  0  0  0  0  0
   -4.8350    1.1167    5.3247 H   0  0  0  0  0  0  0  0  0  0  0  0
   -4.0085    4.1314    2.3015 H   0  0  0  0  0  0  0  0  0  0  0  0
   -4.5949    4.5349    3.9134 H   0  0  0  0  0  0  0  0  0  0  0  0
   -5.6796    3.7653    2.7441 H   0  0  0  0  0  0  0  0  0  0  0  0
   -5.8187    0.1147    3.4802 H   0  0  0  0  0  0  0  0  0  0  0  0
   -8.0116   -2.6992    0.5369 H   0  0  0  0  0  0  0  0  0  0  0  0
   -6.8290   -1.9137   -0.5055 H   0  0  0  0  0  0  0  0  0  0  0  0
   -7.8893   -0.9327    0.5127 H   0  0  0  0  0  0  0  0  0  0  0  0
   -4.6948   -3.2701    2.3048 H   0  0  0  0  0  0  0  0  0  0  0  0
   -6.0963   -4.1001    1.6101 H   0  0  0  0  0  0  0  0  0  0  0  0
   -4.9383   -3.2954    0.5546 H   0  0  0  0  0  0  0  0  0  0  0  0
   -7.7265   -1.1241    3.0889 H   0  0  0  0  0  0  0  0  0  0  0  0
   -6.4220   -2.0821    3.8207 H   0  0  0  0  0  0  0  0  0  0  0  0
   -7.7356   -2.8826    2.9591 H   0  0  0  0  0  0  0  0  0  0  0  0
   -4.6116   -1.2064   -0.4289 H   0  0  0  0  0  0  0  0  0  0  0  0
   -4.4213    1.9160   -1.9231 H   0  0  0  0  0  0  0  0  0  0  0  0
    0.4817    1.6420   -4.2839 H   0  0  0  0  0  0  0  0  0  0  0  0
   -0.6295    0.6620   -5.2603 H   0  0  0  0  0  0  0  0  0  0  0  0
   -0.8381    3.6423   -4.6785 H   0  0  0  0  0  0  0  0  0  0  0  0
   -0.4961    2.8602   -6.2239 H   0  0  0  0  0  0  0  0  0  0  0  0
   -2.8782    3.4914   -6.1580 H   0  0  0  0  0  0  0  0  0  0  0  0
   -2.7386    1.7345   -6.1427 H   0  0  0  0  0  0  0  0  0  0  0  0
   -4.3345    2.2697   -4.4493 H   0  0  0  0  0  0  0  0  0  0  0  0
   -3.3584    3.6092   -3.8303 H   0  0  0  0  0  0  0  0  0  0  0  0
  2  3  1  0  0  0  0
  2  1  2  0  0  0  0
  3 54  1  0  0  0  0
  4  2  1  0  0  0  0
  5  4  1  0  0  0  0
  6  5  1  0  0  0  0
  6  7  1  0  0  0  0
  7  8  2  0  0  0  0
  7 20  1  0  0  0  0
  8  9  1  0  0  0  0
  9 10  1  0  0  0  0
  9 14  2  0  0  0  0
 10 12  1  0  0  0  0
 11 57  1  0  0  0  0
 11 58  1  0  0  0  0
 11 10  1  0  0  0  0
 12 59  1  0  0  0  0
 12 61  1  0  0  0  0
 12 60  1  0  0  0  0
 13 64  1  0  0  0  0
 13 10  1  0  0  0  0
 13 62  1  0  0  0  0
 14 65  1  0  0  0  0
 15 14  1  0  0  0  0
 15 16  1  0  0  0  0
 16 17  1  0  0  0  0
 16 19  1  0  0  0  0
 17 66  1  0  0  0  0
 17 68  1  0  0  0  0
 18 70  1  0  0  0  0
 18 16  1  0  0  0  0
 19 74  1  0  0  0  0
 19 72  1  0  0  0  0
 20 15  2  0  0  0  0
 21  6  2  0  0  0  0
 22 23  2  0  0  0  0
 22 21  1  0  0  0  0
 23 28  1  0  0  0  0
 24 78  1  0  0  0  0
 24 23  1  0  0  0  0
 25 24  1  0  0  0  0
 25 79  1  0  0  0  0
 26 27  1  0  0  0  0
 26 25  1  0  0  0  0
 26 81  1  0  0  0  0
 27 83  1  0  0  0  0
 27 22  1  0  0  0  0
 28 29  1  0  0  0  0
 28  5  2  0  0  0  0
 29 30  2  0  0  0  0
 30 32  1  0  0  0  0
 30 31  1  0  0  0  0
 31  2  1  0  0  0  0
 32 33  1  0  0  0  0
 33 46  2  0  0  0  0
 33 34  1  0  0  0  0
 34 35  2  0  0  0  0
 35 40  1  0  0  0  0
 35 36  1  0  0  0  0
 36 37  1  0  0  0  0
 36 38  1  0  0  0  0
 37 87  1  0  0  0  0
 37 88  1  0  0  0  0
 38 91  1  0  0  0  0
 38 89  1  0  0  0  0
 39 36  1  0  0  0  0
 39 93  1  0  0  0  0
 40 95  1  0  0  0  0
 41 42  1  0  0  0  0
 41 40  2  0  0  0  0
 42 45  1  0  0  0  0
 43 98  1  0  0  0  0
 43 96  1  0  0  0  0
 43 42  1  0  0  0  0
 44100  1  0  0  0  0
 44 42  1  0  0  0  0
 44 99  1  0  0  0  0
 45104  1  0  0  0  0
 45102  1  0  0  0  0
 45103  1  0  0  0  0
 46 41  1  0  0  0  0
 47106  1  0  0  0  0
 47 32  2  0  0  0  0
 48 47  1  0  0  0  0
 49 48  2  0  0  0  0
 49 29  1  0  0  0  0
 50107  1  0  0  0  0
 50 49  1  0  0  0  0
 51109  1  0  0  0  0
 51 50  1  0  0  0  0
 52 51  1  0  0  0  0
 52 53  1  0  0  0  0
 53114  1  0  0  0  0
 53 48  1  0  0  0  0
 55  8  1  0  0  0  0
 56 11  1  0  0  0  0
 63 13  1  0  0  0  0
 67 17  1  0  0  0  0
 69 18  1  0  0  0  0
 71 18  1  0  0  0  0
 73 19  1  0  0  0  0
 75 20  1  0  0  0  0
 76 21  1  0  0  0  0
 77 24  1  0  0  0  0
 80 25  1  0  0  0  0
 82 26  1  0  0  0  0
 84 27  1  0  0  0  0
 85 34  1  0  0  0  0
 86 37  1  0  0  0  0
 90 38  1  0  0  0  0
 92 39  1  0  0  0  0
 94 39  1  0  0  0  0
 97 43  1  0  0  0  0
101 44  1  0  0  0  0
105 46  1  0  0  0  0
108 50  1  0  0  0  0
110 51  1  0  0  0  0
111 52  1  0  0  0  0
112 52  1  0  0  0  0
113 53  1  0  0  0  0
M  END
$$$$
