O=P1(O)OC2=C([Si](C3=CC=C(C(C)(C)C)C=C3)(C4=CC=C(C(C)(C)C)C=C4)C5=CC=C(C(C)(C)C)C=C5)C=C6C(CCCC6)=C2C7=C(O1)C([Si](C8=CC=C(C(C)(C)C)C=C8)(C9=CC=C(C(C)(C)C)C=C9)C%10=CC=C(C(C)(C)C)C=C%10)=CC%11=C7CCCC%11
 OpenBabel09032010373D

184194  0  0  0  0  0  0  0  0999 V2000
    0.8553   -1.9256   -0.5003 O   0  0  0  0  0  0  0  0  0  0  0  0
    0.1257   -0.7631    0.1056 P   0  0  0  0  0  0  0  0  0  0  0  0
   -0.6600   -1.1872    1.4439 O   0  0  0  0  0  0  0  0  0  0  0  0
   -0.9921   -0.1123   -0.8559 O   0  0  0  0  0  0  0  0  0  0  0  0
   -1.4125    1.1876   -0.7206 C   0  0  0  0  0  0  0  0  0  0  0  0
   -2.8033    1.4127   -0.6201 C   0  0  0  0  0  0  0  0  0  0  0  0
   -4.1480    0.1015   -0.7417 Si  0  0  0  0  0  0  0  0  0  0  0  0
   -3.5181   -1.6381   -0.9110 C   0  0  0  0  0  0  0  0  0  0  0  0
   -3.3926   -2.2907   -2.1460 C   0  0  0  0  0  0  0  0  0  0  0  0
   -2.8828   -3.5957   -2.2410 C   0  0  0  0  0  0  0  0  0  0  0  0
   -2.4722   -4.3093   -1.1072 C   0  0  0  0  0  0  0  0  0  0  0  0
   -1.8898   -5.7304   -1.1815 C   0  0  0  0  0  0  0  0  0  0  0  0
   -0.4514   -5.7297   -0.6206 C   0  0  0  0  0  0  0  0  0  0  0  0
   -2.7603   -6.6932   -0.3452 C   0  0  0  0  0  0  0  0  0  0  0  0
   -1.8220   -6.3043   -2.6148 C   0  0  0  0  0  0  0  0  0  0  0  0
   -2.6095   -3.6623    0.1305 C   0  0  0  0  0  0  0  0  0  0  0  0
   -3.1370   -2.3685    0.2270 C   0  0  0  0  0  0  0  0  0  0  0  0
   -5.1140    0.6070   -2.2707 C   0  0  0  0  0  0  0  0  0  0  0  0
   -6.5008    0.8129   -2.2676 C   0  0  0  0  0  0  0  0  0  0  0  0
   -7.1843    1.2173   -3.4248 C   0  0  0  0  0  0  0  0  0  0  0  0
   -6.5141    1.4403   -4.6352 C   0  0  0  0  0  0  0  0  0  0  0  0
   -7.2342    1.8850   -5.9185 C   0  0  0  0  0  0  0  0  0  0  0  0
   -8.7627    2.0434   -5.7541 C   0  0  0  0  0  0  0  0  0  0  0  0
   -7.0017    0.8420   -7.0331 C   0  0  0  0  0  0  0  0  0  0  0  0
   -6.6801    3.2510   -6.3777 C   0  0  0  0  0  0  0  0  0  0  0  0
   -5.1235    1.2472   -4.6354 C   0  0  0  0  0  0  0  0  0  0  0  0
   -4.4388    0.8460   -3.4821 C   0  0  0  0  0  0  0  0  0  0  0  0
   -5.2469    0.1257    0.7763 C   0  0  0  0  0  0  0  0  0  0  0  0
   -6.3526   -0.7405    0.8733 C   0  0  0  0  0  0  0  0  0  0  0  0
   -7.1868   -0.7509    2.0011 C   0  0  0  0  0  0  0  0  0  0  0  0
   -6.9454    0.0915    3.0936 C   0  0  0  0  0  0  0  0  0  0  0  0
   -7.8353    0.1071    4.3478 C   0  0  0  0  0  0  0  0  0  0  0  0
   -6.9965   -0.2843    5.5834 C   0  0  0  0  0  0  0  0  0  0  0  0
   -9.0307   -0.8700    4.2777 C   0  0  0  0  0  0  0  0  0  0  0  0
   -8.4159    1.5227    4.5556 C   0  0  0  0  0  0  0  0  0  0  0  0
   -5.8261    0.9373    3.0085 C   0  0  0  0  0  0  0  0  0  0  0  0
   -4.9928    0.9516    1.8810 C   0  0  0  0  0  0  0  0  0  0  0  0
   -3.2222    2.7526   -0.5056 C   0  0  0  0  0  0  0  0  0  0  0  0
   -2.3175    3.8187   -0.4545 C   0  0  0  0  0  0  0  0  0  0  0  0
   -0.9362    3.5664   -0.5777 C   0  0  0  0  0  0  0  0  0  0  0  0
    0.0407    4.7235   -0.4077 C   0  0  0  0  0  0  0  0  0  0  0  0
   -0.5568    5.9469    0.2847 C   0  0  0  0  0  0  0  0  0  0  0  0
   -1.8668    6.3236   -0.3855 C   0  0  0  0  0  0  0  0  0  0  0  0
   -2.8802    5.2003   -0.2083 C   0  0  0  0  0  0  0  0  0  0  0  0
   -0.4525    2.2434   -0.8176 C   0  0  0  0  0  0  0  0  0  0  0  0
    0.9359    1.9995   -1.1388 C   0  0  0  0  0  0  0  0  0  0  0  0
    1.7275    1.1491   -0.3269 C   0  0  0  0  0  0  0  0  0  0  0  0
    1.0633    0.4380    0.6340 O   0  0  0  0  0  0  0  0  0  0  0  0
    3.1239    0.9861   -0.4465 C   0  0  0  0  0  0  0  0  0  0  0  0
    4.1970   -0.0378    0.7065 Si  0  0  0  0  0  0  0  0  0  0  0  0
    5.2858    1.0923    1.7277 C   0  0  0  0  0  0  0  0  0  0  0  0
    5.3609    2.4761    1.5070 C   0  0  0  0  0  0  0  0  0  0  0  0
    6.1770    3.3017    2.2949 C   0  0  0  0  0  0  0  0  0  0  0  0
    6.9502    2.7843    3.3424 C   0  0  0  0  0  0  0  0  0  0  0  0
    7.8540    3.6618    4.2237 C   0  0  0  0  0  0  0  0  0  0  0  0
    7.3962    3.5646    5.6950 C   0  0  0  0  0  0  0  0  0  0  0  0
    7.8399    5.1585    3.8386 C   0  0  0  0  0  0  0  0  0  0  0  0
    9.3159    3.1769    4.1138 C   0  0  0  0  0  0  0  0  0  0  0  0
    6.8669    1.4009    3.5706 C   0  0  0  0  0  0  0  0  0  0  0  0
    6.0543    0.5742    2.7853 C   0  0  0  0  0  0  0  0  0  0  0  0
    3.2126   -1.0609    1.9189 C   0  0  0  0  0  0  0  0  0  0  0  0
    3.0136   -2.4401    1.7621 C   0  0  0  0  0  0  0  0  0  0  0  0
    2.2013   -3.1658    2.6445 C   0  0  0  0  0  0  0  0  0  0  0  0
    1.5523   -2.5501    3.7276 C   0  0  0  0  0  0  0  0  0  0  0  0
    0.6482   -3.3738    4.6587 C   0  0  0  0  0  0  0  0  0  0  0  0
   -0.4935   -4.0161    3.8409 C   0  0  0  0  0  0  0  0  0  0  0  0
   -0.0098   -2.5447    5.7849 C   0  0  0  0  0  0  0  0  0  0  0  0
    1.4773   -4.4871    5.3343 C   0  0  0  0  0  0  0  0  0  0  0  0
    1.7902   -1.1833    3.9155 C   0  0  0  0  0  0  0  0  0  0  0  0
    2.6061   -0.4573    3.0365 C   0  0  0  0  0  0  0  0  0  0  0  0
    5.2391   -1.1338   -0.3888 C   0  0  0  0  0  0  0  0  0  0  0  0
    4.6375   -1.9148   -1.3917 C   0  0  0  0  0  0  0  0  0  0  0  0
    5.3994   -2.7337   -2.2345 C   0  0  0  0  0  0  0  0  0  0  0  0
    6.7976   -2.8093   -2.1230 C   0  0  0  0  0  0  0  0  0  0  0  0
    7.6016   -3.7184   -3.0668 C   0  0  0  0  0  0  0  0  0  0  0  0
    7.1377   -5.1815   -2.8989 C   0  0  0  0  0  0  0  0  0  0  0  0
    7.3748   -3.2785   -4.5294 C   0  0  0  0  0  0  0  0  0  0  0  0
    9.1258   -3.6908   -2.8125 C   0  0  0  0  0  0  0  0  0  0  0  0
    7.3971   -2.0246   -1.1287 C   0  0  0  0  0  0  0  0  0  0  0  0
    6.6364   -1.2039   -0.2818 C   0  0  0  0  0  0  0  0  0  0  0  0
    3.7366    1.6413   -1.5294 C   0  0  0  0  0  0  0  0  0  0  0  0
    2.9968    2.4168   -2.4263 C   0  0  0  0  0  0  0  0  0  0  0  0
    1.6066    2.5884   -2.2467 C   0  0  0  0  0  0  0  0  0  0  0  0
    0.8629    3.2272   -3.4083 C   0  0  0  0  0  0  0  0  0  0  0  0
    1.5788    4.4343   -4.0260 C   0  0  0  0  0  0  0  0  0  0  0  0
    3.1013    4.4228   -3.8834 C   0  0  0  0  0  0  0  0  0  0  0  0
    3.6653    3.0297   -3.6324 C   0  0  0  0  0  0  0  0  0  0  0  0
   -0.2230   -1.9769    1.8226 H   0  0  0  0  0  0  0  0  0  0  0  0
   -3.6868   -1.8041   -3.0740 H   0  0  0  0  0  0  0  0  0  0  0  0
   -2.8089   -4.0248   -3.2363 H   0  0  0  0  0  0  0  0  0  0  0  0
    0.0013   -6.7256   -0.6919 H   0  0  0  0  0  0  0  0  0  0  0  0
    0.1878   -5.0322   -1.1747 H   0  0  0  0  0  0  0  0  0  0  0  0
   -0.4186   -5.4378    0.4349 H   0  0  0  0  0  0  0  0  0  0  0  0
   -2.3857   -7.7215   -0.4091 H   0  0  0  0  0  0  0  0  0  0  0  0
   -2.7742   -6.4232    0.7165 H   0  0  0  0  0  0  0  0  0  0  0  0
   -3.7984   -6.6937   -0.6982 H   0  0  0  0  0  0  0  0  0  0  0  0
   -1.4046   -7.3184   -2.6150 H   0  0  0  0  0  0  0  0  0  0  0  0
   -2.8164   -6.3651   -3.0723 H   0  0  0  0  0  0  0  0  0  0  0  0
   -1.1837   -5.6939   -3.2643 H   0  0  0  0  0  0  0  0  0  0  0  0
   -2.2897   -4.1438    1.0518 H   0  0  0  0  0  0  0  0  0  0  0  0
   -3.2116   -1.9271    1.2218 H   0  0  0  0  0  0  0  0  0  0  0  0
   -7.0906    0.6800   -1.3631 H   0  0  0  0  0  0  0  0  0  0  0  0
   -8.2585    1.3567   -3.3392 H   0  0  0  0  0  0  0  0  0  0  0  0
   -9.2309    2.3568   -6.6950 H   0  0  0  0  0  0  0  0  0  0  0  0
   -9.2364    1.1005   -5.4570 H   0  0  0  0  0  0  0  0  0  0  0  0
   -9.0115    2.8023   -5.0030 H   0  0  0  0  0  0  0  0  0  0  0  0
   -7.5351    1.1180   -7.9503 H   0  0  0  0  0  0  0  0  0  0  0  0
   -5.9426    0.7450   -7.2961 H   0  0  0  0  0  0  0  0  0  0  0  0
   -7.3566   -0.1491   -6.7262 H   0  0  0  0  0  0  0  0  0  0  0  0
   -6.8032    4.0097   -5.5958 H   0  0  0  0  0  0  0  0  0  0  0  0
   -7.2012    3.6079   -7.2738 H   0  0  0  0  0  0  0  0  0  0  0  0
   -5.6138    3.2038   -6.6249 H   0  0  0  0  0  0  0  0  0  0  0  0
   -4.5408    1.4124   -5.5392 H   0  0  0  0  0  0  0  0  0  0  0  0
   -3.3564    0.7286   -3.5501 H   0  0  0  0  0  0  0  0  0  0  0  0
   -6.5853   -1.4349    0.0645 H   0  0  0  0  0  0  0  0  0  0  0  0
   -8.0251   -1.4430    1.9935 H   0  0  0  0  0  0  0  0  0  0  0  0
   -7.6153   -0.3139    6.4879 H   0  0  0  0  0  0  0  0  0  0  0  0
   -6.5446   -1.2751    5.4557 H   0  0  0  0  0  0  0  0  0  0  0  0
   -6.1840    0.4253    5.7743 H   0  0  0  0  0  0  0  0  0  0  0  0
   -8.6973   -1.9090    4.1720 H   0  0  0  0  0  0  0  0  0  0  0  0
   -9.6371   -0.8184    5.1900 H   0  0  0  0  0  0  0  0  0  0  0  0
   -9.6936   -0.6366    3.4364 H   0  0  0  0  0  0  0  0  0  0  0  0
   -8.9926    1.8449    3.6804 H   0  0  0  0  0  0  0  0  0  0  0  0
   -9.0837    1.5525    5.4246 H   0  0  0  0  0  0  0  0  0  0  0  0
   -7.6341    2.2706    4.7276 H   0  0  0  0  0  0  0  0  0  0  0  0
   -5.5751    1.6045    3.8308 H   0  0  0  0  0  0  0  0  0  0  0  0
   -4.1343    1.6206    1.9031 H   0  0  0  0  0  0  0  0  0  0  0  0
   -4.2876    2.9874   -0.4380 H   0  0  0  0  0  0  0  0  0  0  0  0
    0.3967    5.0370   -1.3920 H   0  0  0  0  0  0  0  0  0  0  0  0
    0.9067    4.3994    0.1814 H   0  0  0  0  0  0  0  0  0  0  0  0
    0.1502    6.7822    0.2294 H   0  0  0  0  0  0  0  0  0  0  0  0
   -0.7262    5.7359    1.3481 H   0  0  0  0  0  0  0  0  0  0  0  0
   -2.2632    7.2510    0.0426 H   0  0  0  0  0  0  0  0  0  0  0  0
   -1.6961    6.5099   -1.4534 H   0  0  0  0  0  0  0  0  0  0  0  0
   -3.7270    5.3809   -0.8816 H   0  0  0  0  0  0  0  0  0  0  0  0
   -3.2645    5.2271    0.8196 H   0  0  0  0  0  0  0  0  0  0  0  0
    4.7805    2.9560    0.7210 H   0  0  0  0  0  0  0  0  0  0  0  0
    6.1808    4.3627    2.0598 H   0  0  0  0  0  0  0  0  0  0  0  0
    8.0038    4.2086    6.3415 H   0  0  0  0  0  0  0  0  0  0  0  0
    7.4797    2.5457    6.0886 H   0  0  0  0  0  0  0  0  0  0  0  0
    6.3500    3.8745    5.8039 H   0  0  0  0  0  0  0  0  0  0  0  0
    6.8361    5.5894    3.9300 H   0  0  0  0  0  0  0  0  0  0  0  0
    8.1862    5.3138    2.8101 H   0  0  0  0  0  0  0  0  0  0  0  0
    8.5005    5.7409    4.4922 H   0  0  0  0  0  0  0  0  0  0  0  0
    9.4407    2.1504    4.4755 H   0  0  0  0  0  0  0  0  0  0  0  0
    9.6633    3.2040    3.0741 H   0  0  0  0  0  0  0  0  0  0  0  0
    9.9877    3.8089    4.7065 H   0  0  0  0  0  0  0  0  0  0  0  0
    7.4362    0.9378    4.3738 H   0  0  0  0  0  0  0  0  0  0  0  0
    6.0320   -0.4903    3.0223 H   0  0  0  0  0  0  0  0  0  0  0  0
    3.4610   -2.9843    0.9316 H   0  0  0  0  0  0  0  0  0  0  0  0
    2.0817   -4.2323    2.4595 H   0  0  0  0  0  0  0  0  0  0  0  0
   -0.1200   -4.7153    3.0848 H   0  0  0  0  0  0  0  0  0  0  0  0
   -1.1750   -4.5800    4.4887 H   0  0  0  0  0  0  0  0  0  0  0  0
   -1.0836   -3.2525    3.3203 H   0  0  0  0  0  0  0  0  0  0  0  0
   -0.6390   -1.7432    5.3804 H   0  0  0  0  0  0  0  0  0  0  0  0
   -0.6518   -3.1727    6.4143 H   0  0  0  0  0  0  0  0  0  0  0  0
    0.7400   -2.0911    6.4435 H   0  0  0  0  0  0  0  0  0  0  0  0
    1.8949   -5.1918    4.6068 H   0  0  0  0  0  0  0  0  0  0  0  0
    0.8628   -5.0707    6.0299 H   0  0  0  0  0  0  0  0  0  0  0  0
    2.3152   -4.0657    5.9022 H   0  0  0  0  0  0  0  0  0  0  0  0
    1.3439   -0.6357    4.7415 H   0  0  0  0  0  0  0  0  0  0  0  0
    2.7338    0.6093    3.2292 H   0  0  0  0  0  0  0  0  0  0  0  0
    3.5557   -1.9039   -1.5366 H   0  0  0  0  0  0  0  0  0  0  0  0
    4.8712   -3.3151   -2.9874 H   0  0  0  0  0  0  0  0  0  0  0  0
    7.2569   -5.5166   -1.8617 H   0  0  0  0  0  0  0  0  0  0  0  0
    6.0845   -5.3162   -3.1688 H   0  0  0  0  0  0  0  0  0  0  0  0
    7.7203   -5.8567   -3.5366 H   0  0  0  0  0  0  0  0  0  0  0  0
    7.9649   -3.8898   -5.2221 H   0  0  0  0  0  0  0  0  0  0  0  0
    6.3263   -3.3729   -4.8327 H   0  0  0  0  0  0  0  0  0  0  0  0
    7.6668   -2.2318   -4.6762 H   0  0  0  0  0  0  0  0  0  0  0  0
    9.5398   -2.6852   -2.9505 H   0  0  0  0  0  0  0  0  0  0  0  0
    9.6544   -4.3545   -3.5074 H   0  0  0  0  0  0  0  0  0  0  0  0
    9.3716   -4.0254   -1.7979 H   0  0  0  0  0  0  0  0  0  0  0  0
    8.4738   -2.0229   -0.9819 H   0  0  0  0  0  0  0  0  0  0  0  0
    7.1753   -0.6152    0.4590 H   0  0  0  0  0  0  0  0  0  0  0  0
    4.8088    1.5307   -1.7039 H   0  0  0  0  0  0  0  0  0  0  0  0
    0.7588    2.4492   -4.1777 H   0  0  0  0  0  0  0  0  0  0  0  0
   -0.1590    3.5207   -3.1553 H   0  0  0  0  0  0  0  0  0  0  0  0
    1.3081    4.4917   -5.0877 H   0  0  0  0  0  0  0  0  0  0  0  0
    1.1981    5.3601   -3.5773 H   0  0  0  0  0  0  0  0  0  0  0  0
    3.3764    5.0742   -3.0425 H   0  0  0  0  0  0  0  0  0  0  0  0
    3.5618    4.8632   -4.7752 H   0  0  0  0  0  0  0  0  0  0  0  0
    4.7472    3.1085   -3.4747 H   0  0  0  0  0  0  0  0  0  0  0  0
    3.5032    2.3818   -4.5020 H   0  0  0  0  0  0  0  0  0  0  0  0
  1  2  2  0  0  0  0
  2 48  1  0  0  0  0
  2  3  1  0  0  0  0
  3 88  1  0  0  0  0
  4  5  1  0  0  0  0
  4  2  1  0  0  0  0
  5  6  1  0  0  0  0
  6 38  2  0  0  0  0
  7  6  1  0  0  0  0
  7 28  1  0  0  0  0
  8  7  1  0  0  0  0
  8 17  2  0  0  0  0
  9  8  1  0  0  0  0
 10  9  2  0  0  0  0
 10 11  1  0  0  0  0
 11 16  2  0  0  0  0
 12 11  1  0  0  0  0
 12 13  1  0  0  0  0
 12 14  1  0  0  0  0
 13 93  1  0  0  0  0
 14 95  1  0  0  0  0
 15 12  1  0  0  0  0
 16 17  1  0  0  0  0
 16100  1  0  0  0  0
 17101  1  0  0  0  0
 18 19  1  0  0  0  0
 18  7  1  0  0  0  0
 19102  1  0  0  0  0
 20103  1  0  0  0  0
 20 19  2  0  0  0  0
 21 20  1  0  0  0  0
 22 23  1  0  0  0  0
 22 21  1  0  0  0  0
 23105  1  0  0  0  0
 23106  1  0  0  0  0
 24109  1  0  0  0  0
 24 22  1  0  0  0  0
 25 22  1  0  0  0  0
 25110  1  0  0  0  0
 26 21  2  0  0  0  0
 26 27  1  0  0  0  0
 27 18  2  0  0  0  0
 28 29  2  0  0  0  0
 28 37  1  0  0  0  0
 29 30  1  0  0  0  0
 30 31  2  0  0  0  0
 31 32  1  0  0  0  0
 32 35  1  0  0  0  0
 32 33  1  0  0  0  0
 33119  1  0  0  0  0
 33117  1  0  0  0  0
 34 32  1  0  0  0  0
 34121  1  0  0  0  0
 35125  1  0  0  0  0
 35124  1  0  0  0  0
 36 31  1  0  0  0  0
 36126  1  0  0  0  0
 37127  1  0  0  0  0
 37 36  2  0  0  0  0
 38 39  1  0  0  0  0
 38128  1  0  0  0  0
 39 44  1  0  0  0  0
 40 39  2  0  0  0  0
 40 41  1  0  0  0  0
 41130  1  0  0  0  0
 41 42  1  0  0  0  0
 42132  1  0  0  0  0
 43 44  1  0  0  0  0
 43133  1  0  0  0  0
 43 42  1  0  0  0  0
 44136  1  0  0  0  0
 45  5  2  0  0  0  0
 45 40  1  0  0  0  0
 46 45  1  0  0  0  0
 46 47  2  0  0  0  0
 47 48  1  0  0  0  0
 49 47  1  0  0  0  0
 49 50  1  0  0  0  0
 50 51  1  0  0  0  0
 50 61  1  0  0  0  0
 51 60  1  0  0  0  0
 52 51  2  0  0  0  0
 52 53  1  0  0  0  0
 53 54  2  0  0  0  0
 54 59  1  0  0  0  0
 54 55  1  0  0  0  0
 55 56  1  0  0  0  0
 56141  1  0  0  0  0
 56140  1  0  0  0  0
 56139  1  0  0  0  0
 57142  1  0  0  0  0
 57 55  1  0  0  0  0
 57144  1  0  0  0  0
 58 55  1  0  0  0  0
 58145  1  0  0  0  0
 58147  1  0  0  0  0
 59148  1  0  0  0  0
 60149  1  0  0  0  0
 60 59  2  0  0  0  0
 61 70  1  0  0  0  0
 62 61  2  0  0  0  0
 62 63  1  0  0  0  0
 63 64  2  0  0  0  0
 64 69  1  0  0  0  0
 64 65  1  0  0  0  0
 65 68  1  0  0  0  0
 65 67  1  0  0  0  0
 66153  1  0  0  0  0
 66 65  1  0  0  0  0
 67156  1  0  0  0  0
 67157  1  0  0  0  0
 68160  1  0  0  0  0
 68159  1  0  0  0  0
 69161  1  0  0  0  0
 70162  1  0  0  0  0
 70 69  2  0  0  0  0
 71 80  1  0  0  0  0
 71 50  1  0  0  0  0
 72 71  2  0  0  0  0
 73 74  2  0  0  0  0
 73 72  1  0  0  0  0
 74 79  1  0  0  0  0
 75 76  1  0  0  0  0
 75 78  1  0  0  0  0
 75 74  1  0  0  0  0
 76165  1  0  0  0  0
 77 75  1  0  0  0  0
 78173  1  0  0  0  0
 79174  1  0  0  0  0
 79 80  2  0  0  0  0
 80175  1  0  0  0  0
 81 49  2  0  0  0  0
 82 83  2  0  0  0  0
 82 81  1  0  0  0  0
 83 46  1  0  0  0  0
 84178  1  0  0  0  0
 84 83  1  0  0  0  0
 85 86  1  0  0  0  0
 85180  1  0  0  0  0
 85 84  1  0  0  0  0
 86 87  1  0  0  0  0
 86181  1  0  0  0  0
 87183  1  0  0  0  0
 87 82  1  0  0  0  0
 89  9  1  0  0  0  0
 90 10  1  0  0  0  0
 91 13  1  0  0  0  0
 92 13  1  0  0  0  0
 94 14  1  0  0  0  0
 96 14  1  0  0  0  0
 97 15  1  0  0  0  0
 98 15  1  0  0  0  0
 99 15  1  0  0  0  0
104 23  1  0  0  0  0
107 24  1  0  0  0  0
108 24  1  0  0  0  0
111 25  1  0  0  0  0
112 25  1  0  0  0  0
113 26  1  0  0  0  0
114 27  1  0  0  0  0
115 29  1  0  0  0  0
116 30  1  0  0  0  0
118 33  1  0  0  0  0
120 34  1  0  0  0  0
122 34  1  0  0  0  0
123 35  1  0  0  0  0
129 41  1  0  0  0  0
131 42  1  0  0  0  0
134 43  1  0  0  0  0
135 44  1  0  0  0  0
137 52  1  0  0  0  0
138 53  1  0  0  0  0
143 57  1  0  0  0  0
146 58  1  0  0  0  0
150 62  1  0  0  0  0
151 63  1  0  0  0  0
152 66  1  0  0  0  0
154 66  1  0  0  0  0
155 67  1  0  0  0  0
158 68  1  0  0  0  0
163 72  1  0  0  0  0
164 73  1  0  0  0  0
166 76  1  0  0  0  0
167 76  1  0  0  0  0
168 77  1  0  0  0  0
169 77  1  0  0  0  0
170 77  1  0  0  0  0
171 78  1  0  0  0  0
172 78  1  0  0  0  0
176 81  1  0  0  0  0
177 84  1  0  0  0  0
179 85  1  0  0  0  0
182 86  1  0  0  0  0
184 87  1  0  0  0  0
M  END
$$$$
