O=P1(O)OC2=C(C3=CC(C4=CC=C(OC)C=C4)=CC(C5=CC=C(OC)C=C5)=C3)C=C6C(C=CC=C6)=C2C7=C(O1)C(C8=CC(C9=CC=C(OC)C=C9)=CC(C%10=CC=C(OC)C=C%10)=C8)=CC%11=C7C=CC=C%11
 OpenBabel09032010383D

114124  0  0  0  0  0  0  0  0999 V2000
    0.7171    0.8370    1.1863 O   0  0  0  0  0  0  0  0  0  0  0  0
    0.3591   -0.0810    0.0603 P   0  0  0  0  0  0  0  0  0  0  0  0
    0.1715    0.7287   -1.3187 O   0  0  0  0  0  0  0  0  0  0  0  0
   -1.0055   -0.9195    0.2431 O   0  0  0  0  0  0  0  0  0  0  0  0
   -1.2703   -2.0170   -0.5509 C   0  0  0  0  0  0  0  0  0  0  0  0
   -2.4601   -1.9667   -1.3028 C   0  0  0  0  0  0  0  0  0  0  0  0
   -3.4031   -0.8372   -1.2407 C   0  0  0  0  0  0  0  0  0  0  0  0
   -4.6481   -0.9889   -0.6061 C   0  0  0  0  0  0  0  0  0  0  0  0
   -5.5912    0.0509   -0.5637 C   0  0  0  0  0  0  0  0  0  0  0  0
   -6.9045   -0.1390    0.0775 C   0  0  0  0  0  0  0  0  0  0  0  0
   -7.7290   -1.2218   -0.2707 C   0  0  0  0  0  0  0  0  0  0  0  0
   -8.9861   -1.4037    0.3224 C   0  0  0  0  0  0  0  0  0  0  0  0
   -9.4457   -0.5031    1.2807 C   0  0  0  0  0  0  0  0  0  0  0  0
  -10.6470   -0.5607    1.9312 O   0  0  0  0  0  0  0  0  0  0  0  0
  -11.4990   -1.6539    1.6137 C   0  0  0  0  0  0  0  0  0  0  0  0
   -8.6365    0.5759    1.6381 C   0  0  0  0  0  0  0  0  0  0  0  0
   -7.3815    0.7573    1.0452 C   0  0  0  0  0  0  0  0  0  0  0  0
   -5.2493    1.2728   -1.1670 C   0  0  0  0  0  0  0  0  0  0  0  0
   -4.0135    1.4668   -1.8090 C   0  0  0  0  0  0  0  0  0  0  0  0
   -3.6841    2.7551   -2.4404 C   0  0  0  0  0  0  0  0  0  0  0  0
   -4.5322    3.3292   -3.3981 C   0  0  0  0  0  0  0  0  0  0  0  0
   -4.2180    4.5551   -3.9929 C   0  0  0  0  0  0  0  0  0  0  0  0
   -3.0527    5.2389   -3.6448 C   0  0  0  0  0  0  0  0  0  0  0  0
   -2.8689    6.4247   -4.2997 O   0  0  0  0  0  0  0  0  0  0  0  0
   -1.7150    7.1803   -3.9553 C   0  0  0  0  0  0  0  0  0  0  0  0
   -2.1985    4.6818   -2.6953 C   0  0  0  0  0  0  0  0  0  0  0  0
   -2.5125    3.4511   -2.1017 C   0  0  0  0  0  0  0  0  0  0  0  0
   -3.1072    0.3945   -1.8410 C   0  0  0  0  0  0  0  0  0  0  0  0
   -2.7712   -3.0605   -2.1152 C   0  0  0  0  0  0  0  0  0  0  0  0
   -1.9272   -4.1686   -2.2067 C   0  0  0  0  0  0  0  0  0  0  0  0
   -0.7474   -4.2304   -1.4210 C   0  0  0  0  0  0  0  0  0  0  0  0
    0.0920   -5.3533   -1.6452 C   0  0  0  0  0  0  0  0  0  0  0  0
   -0.2397   -6.3786   -2.5352 C   0  0  0  0  0  0  0  0  0  0  0  0
   -1.4223   -6.3105   -3.2524 C   0  0  0  0  0  0  0  0  0  0  0  0
   -2.2576   -5.2090   -3.0923 C   0  0  0  0  0  0  0  0  0  0  0  0
   -0.4297   -3.1680   -0.4995 C   0  0  0  0  0  0  0  0  0  0  0  0
    0.6686   -3.2572    0.4454 C   0  0  0  0  0  0  0  0  0  0  0  0
    1.6426   -2.2367    0.4816 C   0  0  0  0  0  0  0  0  0  0  0  0
    1.4740   -1.1599   -0.3554 O   0  0  0  0  0  0  0  0  0  0  0  0
    2.8057   -2.2625    1.2771 C   0  0  0  0  0  0  0  0  0  0  0  0
    3.7732   -1.1451    1.2812 C   0  0  0  0  0  0  0  0  0  0  0  0
    4.2636   -0.6045    0.0824 C   0  0  0  0  0  0  0  0  0  0  0  0
    5.0446    0.5621    0.0502 C   0  0  0  0  0  0  0  0  0  0  0  0
    5.3557    1.1977   -1.2403 C   0  0  0  0  0  0  0  0  0  0  0  0
    5.8882    0.4630   -2.3089 C   0  0  0  0  0  0  0  0  0  0  0  0
    6.0486    1.0463   -3.5687 C   0  0  0  0  0  0  0  0  0  0  0  0
    5.6841    2.3747   -3.7896 C   0  0  0  0  0  0  0  0  0  0  0  0
    5.8364    2.8028   -5.0772 O   0  0  0  0  0  0  0  0  0  0  0  0
    5.4146    4.1291   -5.3679 C   0  0  0  0  0  0  0  0  0  0  0  0
    5.1960    3.1317   -2.7278 C   0  0  0  0  0  0  0  0  0  0  0  0
    5.0330    2.5464   -1.4669 C   0  0  0  0  0  0  0  0  0  0  0  0
    5.4093    1.1456    1.2722 C   0  0  0  0  0  0  0  0  0  0  0  0
    4.9756    0.6157    2.4986 C   0  0  0  0  0  0  0  0  0  0  0  0
    5.3121    1.2759    3.7684 C   0  0  0  0  0  0  0  0  0  0  0  0
    4.3009    1.6912    4.6477 C   0  0  0  0  0  0  0  0  0  0  0  0
    4.6147    2.3215    5.8539 C   0  0  0  0  0  0  0  0  0  0  0  0
    5.9431    2.5533    6.2100 C   0  0  0  0  0  0  0  0  0  0  0  0
    6.1071    3.1787    7.4136 O   0  0  0  0  0  0  0  0  0  0  0  0
    7.4424    3.4529    7.8177 C   0  0  0  0  0  0  0  0  0  0  0  0
    6.9602    2.1471    5.3475 C   0  0  0  0  0  0  0  0  0  0  0  0
    6.6448    1.5155    4.1367 C   0  0  0  0  0  0  0  0  0  0  0  0
    4.1557   -0.5258    2.4805 C   0  0  0  0  0  0  0  0  0  0  0  0
    2.9908   -3.3744    2.0997 C   0  0  0  0  0  0  0  0  0  0  0  0
    2.0406   -4.3999    2.1705 C   0  0  0  0  0  0  0  0  0  0  0  0
    0.8658   -4.3452    1.3718 C   0  0  0  0  0  0  0  0  0  0  0  0
   -0.0867   -5.3742    1.5848 C   0  0  0  0  0  0  0  0  0  0  0  0
    0.1315   -6.4282    2.4761 C   0  0  0  0  0  0  0  0  0  0  0  0
    1.3082   -6.4810    3.2052 C   0  0  0  0  0  0  0  0  0  0  0  0
    2.2526   -5.4690    3.0576 C   0  0  0  0  0  0  0  0  0  0  0  0
    0.8970    1.3710   -1.4285 H   0  0  0  0  0  0  0  0  0  0  0  0
   -4.8819   -1.9392   -0.1270 H   0  0  0  0  0  0  0  0  0  0  0  0
   -7.4025   -1.9333   -1.0269 H   0  0  0  0  0  0  0  0  0  0  0  0
   -9.5793   -2.2553    0.0067 H   0  0  0  0  0  0  0  0  0  0  0  0
  -12.4048   -1.5591    2.2204 H   0  0  0  0  0  0  0  0  0  0  0  0
  -11.0272   -2.6091    1.8668 H   0  0  0  0  0  0  0  0  0  0  0  0
  -11.7991   -1.6272    0.5610 H   0  0  0  0  0  0  0  0  0  0  0  0
   -8.9846    1.2841    2.3866 H   0  0  0  0  0  0  0  0  0  0  0  0
   -6.7745    1.6058    1.3547 H   0  0  0  0  0  0  0  0  0  0  0  0
   -5.9656    2.0935   -1.1429 H   0  0  0  0  0  0  0  0  0  0  0  0
   -5.4455    2.8198   -3.6986 H   0  0  0  0  0  0  0  0  0  0  0  0
   -4.8899    4.9790   -4.7352 H   0  0  0  0  0  0  0  0  0  0  0  0
   -1.7258    8.0981   -4.5510 H   0  0  0  0  0  0  0  0  0  0  0  0
   -1.7321    7.4683   -2.8989 H   0  0  0  0  0  0  0  0  0  0  0  0
   -0.7985    6.6340   -4.2013 H   0  0  0  0  0  0  0  0  0  0  0  0
   -1.2823    5.1753   -2.3905 H   0  0  0  0  0  0  0  0  0  0  0  0
   -1.8343    3.0393   -1.3560 H   0  0  0  0  0  0  0  0  0  0  0  0
   -2.1584    0.5155   -2.3613 H   0  0  0  0  0  0  0  0  0  0  0  0
   -3.6836   -3.0273   -2.7105 H   0  0  0  0  0  0  0  0  0  0  0  0
    1.0469   -5.4402   -1.1294 H   0  0  0  0  0  0  0  0  0  0  0  0
    0.4339   -7.2215   -2.6662 H   0  0  0  0  0  0  0  0  0  0  0  0
   -1.6884   -7.1014   -3.9478 H   0  0  0  0  0  0  0  0  0  0  0  0
   -3.1716   -5.1621   -3.6818 H   0  0  0  0  0  0  0  0  0  0  0  0
    3.9703   -1.0656   -0.8605 H   0  0  0  0  0  0  0  0  0  0  0  0
    6.1623   -0.5816   -2.1766 H   0  0  0  0  0  0  0  0  0  0  0  0
    6.4421    0.4520   -4.3898 H   0  0  0  0  0  0  0  0  0  0  0  0
    6.0116    4.8624   -4.8156 H   0  0  0  0  0  0  0  0  0  0  0  0
    4.3455    4.2576   -5.1687 H   0  0  0  0  0  0  0  0  0  0  0  0
    5.5772    4.3049   -6.4356 H   0  0  0  0  0  0  0  0  0  0  0  0
    4.9140    4.1724   -2.8468 H   0  0  0  0  0  0  0  0  0  0  0  0
    4.6103    3.1492   -0.6646 H   0  0  0  0  0  0  0  0  0  0  0  0
    6.0098    2.0542    1.2708 H   0  0  0  0  0  0  0  0  0  0  0  0
    3.2535    1.5369    4.3928 H   0  0  0  0  0  0  0  0  0  0  0  0
    3.8145    2.6365    6.5190 H   0  0  0  0  0  0  0  0  0  0  0  0
    8.0135    2.5276    7.9472 H   0  0  0  0  0  0  0  0  0  0  0  0
    7.4012    3.9567    8.7883 H   0  0  0  0  0  0  0  0  0  0  0  0
    7.9379    4.1287    7.1128 H   0  0  0  0  0  0  0  0  0  0  0  0
    8.0079    2.3030    5.5837 H   0  0  0  0  0  0  0  0  0  0  0  0
    7.4554    1.2006    3.4822 H   0  0  0  0  0  0  0  0  0  0  0  0
    3.7754   -0.9145    3.4246 H   0  0  0  0  0  0  0  0  0  0  0  0
    3.8867   -3.4297    2.7176 H   0  0  0  0  0  0  0  0  0  0  0  0
   -1.0388   -5.3633    1.0571 H   0  0  0  0  0  0  0  0  0  0  0  0
   -0.6245   -7.1998    2.5992 H   0  0  0  0  0  0  0  0  0  0  0  0
    1.4848   -7.2963    3.9014 H   0  0  0  0  0  0  0  0  0  0  0  0
    3.1587   -5.5155    3.6594 H   0  0  0  0  0  0  0  0  0  0  0  0
  2  4  1  0  0  0  0
  2  1  2  0  0  0  0
  3  2  1  0  0  0  0
  5 36  1  0  0  0  0
  5  4  1  0  0  0  0
  6  7  1  0  0  0  0
  6  5  2  0  0  0  0
  7  8  2  0  0  0  0
  8  9  1  0  0  0  0
  8 71  1  0  0  0  0
  9 10  1  0  0  0  0
 10 17  1  0  0  0  0
 11 10  2  0  0  0  0
 11 12  1  0  0  0  0
 12 13  2  0  0  0  0
 13 16  1  0  0  0  0
 13 14  1  0  0  0  0
 15 75  1  0  0  0  0
 15 14  1  0  0  0  0
 15 74  1  0  0  0  0
 16 77  1  0  0  0  0
 17 78  1  0  0  0  0
 17 16  2  0  0  0  0
 18 79  1  0  0  0  0
 18  9  2  0  0  0  0
 19 18  1  0  0  0  0
 20 27  1  0  0  0  0
 20 19  1  0  0  0  0
 21 20  2  0  0  0  0
 22 23  2  0  0  0  0
 22 21  1  0  0  0  0
 23 26  1  0  0  0  0
 24 25  1  0  0  0  0
 24 23  1  0  0  0  0
 25 83  1  0  0  0  0
 26 85  1  0  0  0  0
 26 27  2  0  0  0  0
 27 86  1  0  0  0  0
 28 19  2  0  0  0  0
 28  7  1  0  0  0  0
 29  6  1  0  0  0  0
 30 29  2  0  0  0  0
 30 31  1  0  0  0  0
 31 36  2  0  0  0  0
 32 31  1  0  0  0  0
 32 89  1  0  0  0  0
 33 32  2  0  0  0  0
 34 35  2  0  0  0  0
 34 33  1  0  0  0  0
 35 30  1  0  0  0  0
 36 37  1  0  0  0  0
 37 38  2  0  0  0  0
 37 65  1  0  0  0  0
 38 40  1  0  0  0  0
 39  2  1  0  0  0  0
 39 38  1  0  0  0  0
 40 41  1  0  0  0  0
 40 63  2  0  0  0  0
 41 62  2  0  0  0  0
 42 41  1  0  0  0  0
 43 42  2  0  0  0  0
 43 52  1  0  0  0  0
 44 43  1  0  0  0  0
 45 94  1  0  0  0  0
 45 44  2  0  0  0  0
 46 45  1  0  0  0  0
 47 46  2  0  0  0  0
 47 50  1  0  0  0  0
 48 47  1  0  0  0  0
 49 97  1  0  0  0  0
 49 48  1  0  0  0  0
 49 96  1  0  0  0  0
 50 51  2  0  0  0  0
 51 44  1  0  0  0  0
 51100  1  0  0  0  0
 52 53  2  0  0  0  0
 53 54  1  0  0  0  0
 54 61  2  0  0  0  0
 54 55  1  0  0  0  0
 55 56  2  0  0  0  0
 56 57  1  0  0  0  0
 56103  1  0  0  0  0
 57 58  1  0  0  0  0
 58 59  1  0  0  0  0
 59104  1  0  0  0  0
 59105  1  0  0  0  0
 60107  1  0  0  0  0
 60 57  2  0  0  0  0
 61 60  1  0  0  0  0
 62 53  1  0  0  0  0
 62109  1  0  0  0  0
 63 64  1  0  0  0  0
 63110  1  0  0  0  0
 64 69  2  0  0  0  0
 65 66  2  0  0  0  0
 65 64  1  0  0  0  0
 66 67  1  0  0  0  0
 67112  1  0  0  0  0
 67 68  2  0  0  0  0
 68113  1  0  0  0  0
 69 68  1  0  0  0  0
 69114  1  0  0  0  0
 70  3  1  0  0  0  0
 72 11  1  0  0  0  0
 73 12  1  0  0  0  0
 76 15  1  0  0  0  0
 80 21  1  0  0  0  0
 81 22  1  0  0  0  0
 82 25  1  0  0  0  0
 84 25  1  0  0  0  0
 87 28  1  0  0  0  0
 88 29  1  0  0  0  0
 90 33  1  0  0  0  0
 91 34  1  0  0  0  0
 92 35  1  0  0  0  0
 93 42  1  0  0  0  0
 95 46  1  0  0  0  0
 98 49  1  0  0  0  0
 99 50  1  0  0  0  0
101 52  1  0  0  0  0
102 55  1  0  0  0  0
106 59  1  0  0  0  0
108 61  1  0  0  0  0
111 66  1  0  0  0  0
M  END
$$$$
