O=P1(O)OC2=C(C3=CC=C(C(C)(C)C)C=C3)C=C4C(C=CC=C4)=C2C5=C(O1)C(C6=CC=C(C(C)(C)C)C=C6)=CC7=C5C=CC=C7
 OpenBabel09032010373D

 82 88  0  0  0  0  0  0  0  0999 V2000
    0.5541    1.5654    1.3456 O   0  0  0  0  0  0  0  0  0  0  0  0
   -0.0253    0.6611    0.3030 P   0  0  0  0  0  0  0  0  0  0  0  0
   -0.8891    1.4816   -0.7788 O   0  0  0  0  0  0  0  0  0  0  0  0
    1.0201   -0.1697   -0.5988 O   0  0  0  0  0  0  0  0  0  0  0  0
    1.5596   -1.3133   -0.0501 C   0  0  0  0  0  0  0  0  0  0  0  0
    2.9327   -1.2922    0.2474 C   0  0  0  0  0  0  0  0  0  0  0  0
    3.7773   -0.1207   -0.0146 C   0  0  0  0  0  0  0  0  0  0  0  0
    4.5706   -0.0548   -1.1655 C   0  0  0  0  0  0  0  0  0  0  0  0
    5.3833    1.0577   -1.4213 C   0  0  0  0  0  0  0  0  0  0  0  0
    5.4321    2.1444   -0.5348 C   0  0  0  0  0  0  0  0  0  0  0  0
    6.3061    3.3853   -0.7853 C   0  0  0  0  0  0  0  0  0  0  0  0
    5.4113    4.6404   -0.8748 C   0  0  0  0  0  0  0  0  0  0  0  0
    7.3087    3.5579    0.3762 C   0  0  0  0  0  0  0  0  0  0  0  0
    7.1287    3.3161   -2.0918 C   0  0  0  0  0  0  0  0  0  0  0  0
    4.6318    2.0655    0.6203 C   0  0  0  0  0  0  0  0  0  0  0  0
    3.8220    0.9535    0.8777 C   0  0  0  0  0  0  0  0  0  0  0  0
    3.5031   -2.4431    0.7936 C   0  0  0  0  0  0  0  0  0  0  0  0
    2.7347   -3.5777    1.0683 C   0  0  0  0  0  0  0  0  0  0  0  0
    1.3499   -3.5951    0.7518 C   0  0  0  0  0  0  0  0  0  0  0  0
    0.6316   -4.7527    1.1461 C   0  0  0  0  0  0  0  0  0  0  0  0
    1.2482   -5.8500    1.7537 C   0  0  0  0  0  0  0  0  0  0  0  0
    2.6099   -5.8223    2.0073 C   0  0  0  0  0  0  0  0  0  0  0  0
    3.3462   -4.6897    1.6722 C   0  0  0  0  0  0  0  0  0  0  0  0
    0.7367   -2.4573    0.1116 C   0  0  0  0  0  0  0  0  0  0  0  0
   -0.6273   -2.4441   -0.3804 C   0  0  0  0  0  0  0  0  0  0  0  0
   -1.5192   -1.4176    0.0182 C   0  0  0  0  0  0  0  0  0  0  0  0
   -1.0715   -0.4271    0.8640 O   0  0  0  0  0  0  0  0  0  0  0  0
   -2.8767   -1.3662   -0.3471 C   0  0  0  0  0  0  0  0  0  0  0  0
   -3.7669   -0.2778    0.0871 C   0  0  0  0  0  0  0  0  0  0  0  0
   -4.1073   -0.1072    1.4324 C   0  0  0  0  0  0  0  0  0  0  0  0
   -4.9429    0.9414    1.8351 C   0  0  0  0  0  0  0  0  0  0  0  0
   -5.4731    1.8596    0.9096 C   0  0  0  0  0  0  0  0  0  0  0  0
   -6.3890    2.9989    1.3897 C   0  0  0  0  0  0  0  0  0  0  0  0
   -5.6272    3.8875    2.3968 C   0  0  0  0  0  0  0  0  0  0  0  0
   -6.8872    3.9205    0.2535 C   0  0  0  0  0  0  0  0  0  0  0  0
   -7.6377    2.4066    2.0778 C   0  0  0  0  0  0  0  0  0  0  0  0
   -5.1289    1.6788   -0.4385 C   0  0  0  0  0  0  0  0  0  0  0  0
   -4.2916    0.6300   -0.8413 C   0  0  0  0  0  0  0  0  0  0  0  0
   -3.3679   -2.3813   -1.1689 C   0  0  0  0  0  0  0  0  0  0  0  0
   -2.5370   -3.3967   -1.6509 C   0  0  0  0  0  0  0  0  0  0  0  0
   -1.1630   -3.4293   -1.2889 C   0  0  0  0  0  0  0  0  0  0  0  0
   -0.3772   -4.4313   -1.9142 C   0  0  0  0  0  0  0  0  0  0  0  0
   -0.9202   -5.3836   -2.7812 C   0  0  0  0  0  0  0  0  0  0  0  0
   -2.2738   -5.3571   -3.0730 C   0  0  0  0  0  0  0  0  0  0  0  0
   -3.0746   -4.3644   -2.5165 C   0  0  0  0  0  0  0  0  0  0  0  0
   -1.4462    2.1433   -0.3297 H   0  0  0  0  0  0  0  0  0  0  0  0
    4.5561   -0.8729   -1.8830 H   0  0  0  0  0  0  0  0  0  0  0  0
    5.9682    1.0442   -2.3365 H   0  0  0  0  0  0  0  0  0  0  0  0
    4.6663    4.5376   -1.6727 H   0  0  0  0  0  0  0  0  0  0  0  0
    6.0068    5.5359   -1.0877 H   0  0  0  0  0  0  0  0  0  0  0  0
    4.8695    4.8306    0.0582 H   0  0  0  0  0  0  0  0  0  0  0  0
    7.9684    4.4166    0.2045 H   0  0  0  0  0  0  0  0  0  0  0  0
    6.8071    3.7268    1.3354 H   0  0  0  0  0  0  0  0  0  0  0  0
    7.9405    2.6687    0.4873 H   0  0  0  0  0  0  0  0  0  0  0  0
    7.8173    2.4632   -2.0903 H   0  0  0  0  0  0  0  0  0  0  0  0
    6.4813    3.2312   -2.9724 H   0  0  0  0  0  0  0  0  0  0  0  0
    7.7356    4.2198   -2.2248 H   0  0  0  0  0  0  0  0  0  0  0  0
    4.6196    2.8777    1.3440 H   0  0  0  0  0  0  0  0  0  0  0  0
    3.2158    0.9412    1.7819 H   0  0  0  0  0  0  0  0  0  0  0  0
    4.5666   -2.4368    1.0319 H   0  0  0  0  0  0  0  0  0  0  0  0
   -0.4447   -4.8124    0.9934 H   0  0  0  0  0  0  0  0  0  0  0  0
    0.6566   -6.7186    2.0307 H   0  0  0  0  0  0  0  0  0  0  0  0
    3.0972   -6.6706    2.4801 H   0  0  0  0  0  0  0  0  0  0  0  0
    4.4103   -4.6766    1.9014 H   0  0  0  0  0  0  0  0  0  0  0  0
   -3.7217   -0.7932    2.1846 H   0  0  0  0  0  0  0  0  0  0  0  0
   -5.1742    1.0274    2.8950 H   0  0  0  0  0  0  0  0  0  0  0  0
   -4.7159    4.3002    1.9481 H   0  0  0  0  0  0  0  0  0  0  0  0
   -5.3302    3.3352    3.2951 H   0  0  0  0  0  0  0  0  0  0  0  0
   -6.2464    4.7291    2.7287 H   0  0  0  0  0  0  0  0  0  0  0  0
   -6.0537    4.4093   -0.2643 H   0  0  0  0  0  0  0  0  0  0  0  0
   -7.5339    4.7154    0.6444 H   0  0  0  0  0  0  0  0  0  0  0  0
   -7.4726    3.3656   -0.4888 H   0  0  0  0  0  0  0  0  0  0  0  0
   -8.1863    1.7445    1.3973 H   0  0  0  0  0  0  0  0  0  0  0  0
   -7.3824    1.8233    2.9693 H   0  0  0  0  0  0  0  0  0  0  0  0
   -8.3249    3.1981    2.3991 H   0  0  0  0  0  0  0  0  0  0  0  0
   -5.4996    2.3439   -1.2137 H   0  0  0  0  0  0  0  0  0  0  0  0
   -4.0399    0.5343   -1.8966 H   0  0  0  0  0  0  0  0  0  0  0  0
   -4.4193   -2.3622   -1.4549 H   0  0  0  0  0  0  0  0  0  0  0  0
    0.6968   -4.4777   -1.7432 H   0  0  0  0  0  0  0  0  0  0  0  0
   -0.2770   -6.1367   -3.2289 H   0  0  0  0  0  0  0  0  0  0  0  0
   -2.7042   -6.0924   -3.7469 H   0  0  0  0  0  0  0  0  0  0  0  0
   -4.1307   -4.3433   -2.7799 H   0  0  0  0  0  0  0  0  0  0  0  0
  2 27  1  0  0  0  0
  2  1  2  0  0  0  0
  3 46  1  0  0  0  0
  3  2  1  0  0  0  0
  4  5  1  0  0  0  0
  4  2  1  0  0  0  0
  5 24  2  0  0  0  0
  5  6  1  0  0  0  0
  6 17  2  0  0  0  0
  7  6  1  0  0  0  0
  7 16  2  0  0  0  0
  8  7  1  0  0  0  0
  9  8  2  0  0  0  0
  9 10  1  0  0  0  0
 10 15  2  0  0  0  0
 11 10  1  0  0  0  0
 11 13  1  0  0  0  0
 12 11  1  0  0  0  0
 12 51  1  0  0  0  0
 13 54  1  0  0  0  0
 13 53  1  0  0  0  0
 14 55  1  0  0  0  0
 14 11  1  0  0  0  0
 15 16  1  0  0  0  0
 15 58  1  0  0  0  0
 16 59  1  0  0  0  0
 17 60  1  0  0  0  0
 17 18  1  0  0  0  0
 18 23  1  0  0  0  0
 19 18  2  0  0  0  0
 19 20  1  0  0  0  0
 20 21  2  0  0  0  0
 21 22  1  0  0  0  0
 21 62  1  0  0  0  0
 22 63  1  0  0  0  0
 23 64  1  0  0  0  0
 23 22  2  0  0  0  0
 24 19  1  0  0  0  0
 25 26  2  0  0  0  0
 25 24  1  0  0  0  0
 26 27  1  0  0  0  0
 28 26  1  0  0  0  0
 28 29  1  0  0  0  0
 29 30  2  0  0  0  0
 30 31  1  0  0  0  0
 30 65  1  0  0  0  0
 31 66  1  0  0  0  0
 32 33  1  0  0  0  0
 32 31  2  0  0  0  0
 33 36  1  0  0  0  0
 33 34  1  0  0  0  0
 34 69  1  0  0  0  0
 34 68  1  0  0  0  0
 35 71  1  0  0  0  0
 35 33  1  0  0  0  0
 36 75  1  0  0  0  0
 36 74  1  0  0  0  0
 37 32  1  0  0  0  0
 38 37  2  0  0  0  0
 38 29  1  0  0  0  0
 39 28  2  0  0  0  0
 40 41  1  0  0  0  0
 40 39  1  0  0  0  0
 41 25  1  0  0  0  0
 42 79  1  0  0  0  0
 42 41  2  0  0  0  0
 43 42  1  0  0  0  0
 44 43  2  0  0  0  0
 44 45  1  0  0  0  0
 45 40  2  0  0  0  0
 47  8  1  0  0  0  0
 48  9  1  0  0  0  0
 49 12  1  0  0  0  0
 50 12  1  0  0  0  0
 52 13  1  0  0  0  0
 56 14  1  0  0  0  0
 57 14  1  0  0  0  0
 61 20  1  0  0  0  0
 67 34  1  0  0  0  0
 70 35  1  0  0  0  0
 72 35  1  0  0  0  0
 73 36  1  0  0  0  0
 76 37  1  0  0  0  0
 77 38  1  0  0  0  0
 78 39  1  0  0  0  0
 80 43  1  0  0  0  0
 81 44  1  0  0  0  0
 82 45  1  0  0  0  0
M  END
$$$$
