O=P1(O)OC2=C(C3=C(C=CC=C4)C4=CC5=C3C=CC=C5)C=C6C(C=CC=C6)=C2C7=C(O1)[C@@]([C@@]8=C(C=CC=C9)C9=CC%10=C8C=CC=C%10)=CC%11=C7C=CC=C%11
 OpenBabel09032010383D

 82 92  0  0  0  0  0  0  0  0999 V2000
    0.3492    1.9052    2.0532 O   0  0  0  0  0  0  0  0  0  0  0  0
   -0.0591    1.3823    0.7133 P   0  0  0  0  0  0  0  0  0  0  0  0
   -0.7344    2.5330   -0.1828 O   0  0  0  0  0  0  0  0  0  0  0  0
    1.1134    0.8287   -0.2401 O   0  0  0  0  0  0  0  0  0  0  0  0
    1.5647   -0.4530   -0.0302 C   0  0  0  0  0  0  0  0  0  0  0  0
    2.8856   -0.5942    0.4297 C   0  0  0  0  0  0  0  0  0  0  0  0
    3.7665    0.5694    0.6950 C   0  0  0  0  0  0  0  0  0  0  0  0
    4.4966    1.1699   -0.3823 C   0  0  0  0  0  0  0  0  0  0  0  0
    4.4159    0.7389   -1.7310 C   0  0  0  0  0  0  0  0  0  0  0  0
    5.1473    1.3514   -2.7515 C   0  0  0  0  0  0  0  0  0  0  0  0
    5.9856    2.4154   -2.4554 C   0  0  0  0  0  0  0  0  0  0  0  0
    6.0899    2.8633   -1.1406 C   0  0  0  0  0  0  0  0  0  0  0  0
    5.3587    2.2546   -0.1051 C   0  0  0  0  0  0  0  0  0  0  0  0
    5.4886    2.7228    1.2076 C   0  0  0  0  0  0  0  0  0  0  0  0
    4.7826    2.1488    2.2713 C   0  0  0  0  0  0  0  0  0  0  0  0
    3.9081    1.0655    2.0314 C   0  0  0  0  0  0  0  0  0  0  0  0
    3.2154    0.5361    3.1493 C   0  0  0  0  0  0  0  0  0  0  0  0
    3.3819    1.0491    4.4375 C   0  0  0  0  0  0  0  0  0  0  0  0
    4.2510    2.1079    4.6501 C   0  0  0  0  0  0  0  0  0  0  0  0
    4.9457    2.6540    3.5733 C   0  0  0  0  0  0  0  0  0  0  0  0
    3.3804   -1.8853    0.6258 C   0  0  0  0  0  0  0  0  0  0  0  0
    2.5812   -3.0093    0.4105 C   0  0  0  0  0  0  0  0  0  0  0  0
    1.2508   -2.8583   -0.0643 C   0  0  0  0  0  0  0  0  0  0  0  0
    0.4857   -4.0488   -0.1640 C   0  0  0  0  0  0  0  0  0  0  0  0
    1.0138   -5.3109    0.1217 C   0  0  0  0  0  0  0  0  0  0  0  0
    2.3301   -5.4280    0.5371 C   0  0  0  0  0  0  0  0  0  0  0  0
    3.1064   -4.2828    0.6860 C   0  0  0  0  0  0  0  0  0  0  0  0
    0.7289   -1.5467   -0.3662 C   0  0  0  0  0  0  0  0  0  0  0  0
   -0.5594   -1.3193   -0.9939 C   0  0  0  0  0  0  0  0  0  0  0  0
   -1.5057   -0.4520   -0.3955 C   0  0  0  0  0  0  0  0  0  0  0  0
   -1.1809    0.2282    0.7555 O   0  0  0  0  0  0  0  0  0  0  0  0
   -2.8309   -0.3100   -0.8499 C   0  0  0  0  0  0  0  0  0  0  0  0
   -3.8188    0.5467   -0.1463 C   0  0  0  0  0  0  0  0  0  0  0  0
   -4.5062    0.0421    1.0058 C   0  0  0  0  0  0  0  0  0  0  0  0
   -4.3180   -1.2609    1.5329 C   0  0  0  0  0  0  0  0  0  0  0  0
   -5.0069   -1.7123    2.6612 C   0  0  0  0  0  0  0  0  0  0  0  0
   -5.9090   -0.8745    3.2991 C   0  0  0  0  0  0  0  0  0  0  0  0
   -6.1199    0.4110    2.8063 C   0  0  0  0  0  0  0  0  0  0  0  0
   -5.4328    0.8762    1.6711 C   0  0  0  0  0  0  0  0  0  0  0  0
   -5.6678    2.1724    1.1983 C   0  0  0  0  0  0  0  0  0  0  0  0
   -5.0105    2.6795    0.0718 C   0  0  0  0  0  0  0  0  0  0  0  0
   -4.0790    1.8737   -0.6206 C   0  0  0  0  0  0  0  0  0  0  0  0
   -3.4475    2.4482   -1.7525 C   0  0  0  0  0  0  0  0  0  0  0  0
   -3.7174    3.7523   -2.1731 C   0  0  0  0  0  0  0  0  0  0  0  0
   -4.6350    4.5238   -1.4775 C   0  0  0  0  0  0  0  0  0  0  0  0
   -5.2776    3.9896   -0.3631 C   0  0  0  0  0  0  0  0  0  0  0  0
   -3.2167   -1.0161   -1.9906 C   0  0  0  0  0  0  0  0  0  0  0  0
   -2.3080   -1.8117   -2.6915 C   0  0  0  0  0  0  0  0  0  0  0  0
   -0.9748   -1.9568   -2.2208 C   0  0  0  0  0  0  0  0  0  0  0  0
   -0.1003   -2.7081   -3.0474 C   0  0  0  0  0  0  0  0  0  0  0  0
   -0.5241   -3.3311   -4.2248 C   0  0  0  0  0  0  0  0  0  0  0  0
   -1.8428   -3.2103   -4.6313 C   0  0  0  0  0  0  0  0  0  0  0  0
   -2.7269   -2.4497   -3.8715 C   0  0  0  0  0  0  0  0  0  0  0  0
   -1.3267    3.0854    0.3596 H   0  0  0  0  0  0  0  0  0  0  0  0
    3.7678   -0.0899   -2.0078 H   0  0  0  0  0  0  0  0  0  0  0  0
    5.0558    0.9944   -3.7738 H   0  0  0  0  0  0  0  0  0  0  0  0
    6.5573    2.8973   -3.2436 H   0  0  0  0  0  0  0  0  0  0  0  0
    6.7533    3.6991   -0.9274 H   0  0  0  0  0  0  0  0  0  0  0  0
    6.1576    3.5587    1.4076 H   0  0  0  0  0  0  0  0  0  0  0  0
    2.5071   -0.2804    3.0263 H   0  0  0  0  0  0  0  0  0  0  0  0
    2.8190    0.6257    5.2648 H   0  0  0  0  0  0  0  0  0  0  0  0
    4.3821    2.5154    5.6484 H   0  0  0  0  0  0  0  0  0  0  0  0
    5.6178    3.4890    3.7589 H   0  0  0  0  0  0  0  0  0  0  0  0
    4.4040   -2.0043    0.9810 H   0  0  0  0  0  0  0  0  0  0  0  0
   -0.5611   -4.0079   -0.4592 H   0  0  0  0  0  0  0  0  0  0  0  0
    0.3891   -6.1948    0.0231 H   0  0  0  0  0  0  0  0  0  0  0  0
    2.7499   -6.4038    0.7633 H   0  0  0  0  0  0  0  0  0  0  0  0
    4.1311   -4.3931    1.0372 H   0  0  0  0  0  0  0  0  0  0  0  0
   -3.6188   -1.9509    1.0650 H   0  0  0  0  0  0  0  0  0  0  0  0
   -4.8329   -2.7170    3.0372 H   0  0  0  0  0  0  0  0  0  0  0  0
   -6.4476   -1.2181    4.1779 H   0  0  0  0  0  0  0  0  0  0  0  0
   -6.8321    1.0534    3.3206 H   0  0  0  0  0  0  0  0  0  0  0  0
   -6.3845    2.8039    1.7221 H   0  0  0  0  0  0  0  0  0  0  0  0
   -2.7087    1.8844   -2.3200 H   0  0  0  0  0  0  0  0  0  0  0  0
   -3.2033    4.1579   -3.0408 H   0  0  0  0  0  0  0  0  0  0  0  0
   -4.8525    5.5385   -1.7998 H   0  0  0  0  0  0  0  0  0  0  0  0
   -5.9963    4.6106    0.1688 H   0  0  0  0  0  0  0  0  0  0  0  0
   -4.2414   -0.9151   -2.3479 H   0  0  0  0  0  0  0  0  0  0  0  0
    0.9517   -2.8098   -2.7868 H   0  0  0  0  0  0  0  0  0  0  0  0
    0.1834   -3.9029   -4.8198 H   0  0  0  0  0  0  0  0  0  0  0  0
   -2.1818   -3.6897   -5.5454 H   0  0  0  0  0  0  0  0  0  0  0  0
   -3.7531   -2.3463   -4.2204 H   0  0  0  0  0  0  0  0  0  0  0  0
  2 31  1  0  0  0  0
  2  1  2  0  0  0  0
  3 54  1  0  0  0  0
  3  2  1  0  0  0  0
  4  5  1  0  0  0  0
  4  2  1  0  0  0  0
  5  6  2  0  0  0  0
  6 21  1  0  0  0  0
  6  7  1  0  0  0  0
  7 16  2  0  0  0  0
  8 13  1  0  0  0  0
  8  7  1  0  0  0  0
  9  8  2  0  0  0  0
 10 11  2  0  0  0  0
 10  9  1  0  0  0  0
 11 12  1  0  0  0  0
 12 58  1  0  0  0  0
 12 13  2  0  0  0  0
 13 14  1  0  0  0  0
 14 59  1  0  0  0  0
 14 15  2  0  0  0  0
 15 20  1  0  0  0  0
 16 15  1  0  0  0  0
 16 17  1  0  0  0  0
 17 18  2  0  0  0  0
 18 19  1  0  0  0  0
 18 61  1  0  0  0  0
 19 62  1  0  0  0  0
 20 63  1  0  0  0  0
 20 19  2  0  0  0  0
 21 64  1  0  0  0  0
 22 21  2  0  0  0  0
 22 27  1  0  0  0  0
 23 22  1  0  0  0  0
 24 23  1  0  0  0  0
 24 25  2  0  0  0  0
 25 26  1  0  0  0  0
 26 27  2  0  0  0  0
 26 67  1  0  0  0  0
 27 68  1  0  0  0  0
 28 23  2  0  0  0  0
 28  5  1  0  0  0  0
 29 30  2  0  0  0  0
 29 28  1  0  0  0  0
 30 31  1  0  0  0  0
 32 30  1  0  0  0  0
 32 33  1  0  0  0  0
 33 34  1  0  0  0  0
 34 35  2  0  0  0  0
 34 39  1  0  0  0  0
 35 36  1  0  0  0  0
 36 70  1  0  0  0  0
 36 37  2  0  0  0  0
 37 71  1  0  0  0  0
 38 37  1  0  0  0  0
 38 72  1  0  0  0  0
 39 38  2  0  0  0  0
 40 39  1  0  0  0  0
 40 73  1  0  0  0  0
 41 40  2  0  0  0  0
 42 33  2  0  0  0  0
 42 41  1  0  0  0  0
 43 42  1  0  0  0  0
 44 43  2  0  0  0  0
 44 45  1  0  0  0  0
 45 46  2  0  0  0  0
 46 41  1  0  0  0  0
 46 77  1  0  0  0  0
 47 32  2  0  0  0  0
 48 49  1  0  0  0  0
 48 47  1  0  0  0  0
 49 29  1  0  0  0  0
 50 79  1  0  0  0  0
 50 49  2  0  0  0  0
 51 50  1  0  0  0  0
 52 51  2  0  0  0  0
 52 53  1  0  0  0  0
 53 48  2  0  0  0  0
 55  9  1  0  0  0  0
 56 10  1  0  0  0  0
 57 11  1  0  0  0  0
 60 17  1  0  0  0  0
 65 24  1  0  0  0  0
 66 25  1  0  0  0  0
 69 35  1  0  0  0  0
 74 43  1  0  0  0  0
 75 44  1  0  0  0  0
 76 45  1  0  0  0  0
 78 47  1  0  0  0  0
 80 51  1  0  0  0  0
 81 52  1  0  0  0  0
 82 53  1  0  0  0  0
M  END
$$$$
