O=P1(O)OC2=C(C3=CC(C(F)(F)F)=CC(C(F)(F)F)=C3)C=C4C(CCCC4)=C2C5=C(O1)C(C6=CC(C(F)(F)F)=CC(C(F)(F)F)=C6)=CC7=C5CCCC7
 OpenBabel09032010383D

 78 84  0  0  0  0  0  0  0  0999 V2000
    0.4280   -3.2417    0.6421 O   0  0  0  0  0  0  0  0  0  0  0  0
   -0.1037   -1.8722    0.9348 P   0  0  0  0  0  0  0  0  0  0  0  0
   -0.9435   -1.8978    2.3074 O   0  0  0  0  0  0  0  0  0  0  0  0
   -1.1459   -1.3061   -0.1576 O   0  0  0  0  0  0  0  0  0  0  0  0
   -1.5576    0.0038   -0.0620 C   0  0  0  0  0  0  0  0  0  0  0  0
   -2.9252    0.2398    0.1731 C   0  0  0  0  0  0  0  0  0  0  0  0
   -3.9271   -0.8427    0.2268 C   0  0  0  0  0  0  0  0  0  0  0  0
   -4.7456   -1.0166    1.3553 C   0  0  0  0  0  0  0  0  0  0  0  0
   -5.7390   -2.0103    1.3982 C   0  0  0  0  0  0  0  0  0  0  0  0
   -6.6047   -2.1734    2.6250 C   0  0  0  0  0  0  0  0  0  0  0  0
   -7.8300   -2.6997    2.3473 F   0  0  0  0  0  0  0  0  0  0  0  0
   -6.0417   -2.9996    3.5481 F   0  0  0  0  0  0  0  0  0  0  0  0
   -6.8438   -0.9969    3.2685 F   0  0  0  0  0  0  0  0  0  0  0  0
   -5.8935   -2.8642    0.2955 C   0  0  0  0  0  0  0  0  0  0  0  0
   -5.0819   -2.7273   -0.8404 C   0  0  0  0  0  0  0  0  0  0  0  0
   -5.2710   -3.6261   -2.0394 C   0  0  0  0  0  0  0  0  0  0  0  0
   -6.1115   -3.0819   -2.9616 F   0  0  0  0  0  0  0  0  0  0  0  0
   -4.1098   -3.8909   -2.6985 F   0  0  0  0  0  0  0  0  0  0  0  0
   -5.8027   -4.8388   -1.7184 F   0  0  0  0  0  0  0  0  0  0  0  0
   -4.1144   -1.7084   -0.8642 C   0  0  0  0  0  0  0  0  0  0  0  0
   -3.3279    1.5683    0.3483 C   0  0  0  0  0  0  0  0  0  0  0  0
   -2.4064    2.6255    0.3297 C   0  0  0  0  0  0  0  0  0  0  0  0
   -1.0411    2.3614    0.0790 C   0  0  0  0  0  0  0  0  0  0  0  0
   -0.0268    3.4898    0.2221 C   0  0  0  0  0  0  0  0  0  0  0  0
   -0.5512    4.6989    0.9951 C   0  0  0  0  0  0  0  0  0  0  0  0
   -1.9007    5.1183    0.4369 C   0  0  0  0  0  0  0  0  0  0  0  0
   -2.9208    4.0085    0.6600 C   0  0  0  0  0  0  0  0  0  0  0  0
   -0.6035    1.0355   -0.2237 C   0  0  0  0  0  0  0  0  0  0  0  0
    0.7294    0.7319   -0.6602 C   0  0  0  0  0  0  0  0  0  0  0  0
    1.5626   -0.1146    0.1112 C   0  0  0  0  0  0  0  0  0  0  0  0
    1.0191   -0.7452    1.2075 O   0  0  0  0  0  0  0  0  0  0  0  0
    2.9295   -0.3050   -0.1590 C   0  0  0  0  0  0  0  0  0  0  0  0
    3.8236   -1.0957    0.7031 C   0  0  0  0  0  0  0  0  0  0  0  0
    4.8538   -0.4666    1.4239 C   0  0  0  0  0  0  0  0  0  0  0  0
    5.7521   -1.1998    2.2181 C   0  0  0  0  0  0  0  0  0  0  0  0
    6.8533   -0.4906    2.9720 C   0  0  0  0  0  0  0  0  0  0  0  0
    7.4144    0.5245    2.2572 F   0  0  0  0  0  0  0  0  0  0  0  0
    6.4129    0.0661    4.1329 F   0  0  0  0  0  0  0  0  0  0  0  0
    7.8835   -1.3127    3.3175 F   0  0  0  0  0  0  0  0  0  0  0  0
    5.5909   -2.5904    2.3107 C   0  0  0  0  0  0  0  0  0  0  0  0
    4.5767   -3.2485    1.5963 C   0  0  0  0  0  0  0  0  0  0  0  0
    4.3977   -4.7450    1.7049 C   0  0  0  0  0  0  0  0  0  0  0  0
    3.4524   -5.0877    2.6222 F   0  0  0  0  0  0  0  0  0  0  0  0
    4.0230   -5.3265    0.5330 F   0  0  0  0  0  0  0  0  0  0  0  0
    5.5372   -5.3880    2.0879 F   0  0  0  0  0  0  0  0  0  0  0  0
    3.7063   -2.4901    0.7951 C   0  0  0  0  0  0  0  0  0  0  0  0
    3.4539    0.3048   -1.3038 C   0  0  0  0  0  0  0  0  0  0  0  0
    2.6494    1.0520   -2.1749 C   0  0  0  0  0  0  0  0  0  0  0  0
    1.2818    1.2405   -1.8761 C   0  0  0  0  0  0  0  0  0  0  0  0
    0.3834    1.9175   -2.9046 C   0  0  0  0  0  0  0  0  0  0  0  0
    0.9800    1.9680   -4.3103 C   0  0  0  0  0  0  0  0  0  0  0  0
    2.3976    2.5110   -4.2459 C   0  0  0  0  0  0  0  0  0  0  0  0
    3.2815    1.5569   -3.4522 C   0  0  0  0  0  0  0  0  0  0  0  0
   -0.7972   -2.7498    2.7586 H   0  0  0  0  0  0  0  0  0  0  0  0
   -4.6083   -0.3648    2.2195 H   0  0  0  0  0  0  0  0  0  0  0  0
   -6.6569   -3.6442    0.3209 H   0  0  0  0  0  0  0  0  0  0  0  0
   -3.4955   -1.5856   -1.7548 H   0  0  0  0  0  0  0  0  0  0  0  0
   -4.3792    1.7889    0.5328 H   0  0  0  0  0  0  0  0  0  0  0  0
    0.2835    3.8351   -0.7659 H   0  0  0  0  0  0  0  0  0  0  0  0
    0.8649    3.1226    0.7441 H   0  0  0  0  0  0  0  0  0  0  0  0
    0.1647    5.5247    0.9151 H   0  0  0  0  0  0  0  0  0  0  0  0
   -0.6455    4.4554    2.0609 H   0  0  0  0  0  0  0  0  0  0  0  0
   -2.2450    6.0395    0.9199 H   0  0  0  0  0  0  0  0  0  0  0  0
   -1.8077    5.3328   -0.6352 H   0  0  0  0  0  0  0  0  0  0  0  0
   -3.2228    4.0112    1.7154 H   0  0  0  0  0  0  0  0  0  0  0  0
   -3.8137    4.2235    0.0607 H   0  0  0  0  0  0  0  0  0  0  0  0
    4.9633    0.6172    1.3606 H   0  0  0  0  0  0  0  0  0  0  0  0
    6.2698   -3.1708    2.9381 H   0  0  0  0  0  0  0  0  0  0  0  0
    2.9316   -3.0038    0.2243 H   0  0  0  0  0  0  0  0  0  0  0  0
    4.5058    0.1589   -1.5502 H   0  0  0  0  0  0  0  0  0  0  0  0
    0.1753    2.9432   -2.5943 H   0  0  0  0  0  0  0  0  0  0  0  0
   -0.5733    1.3858   -2.9689 H   0  0  0  0  0  0  0  0  0  0  0  0
    0.3593    2.6052   -4.9502 H   0  0  0  0  0  0  0  0  0  0  0  0
    0.9823    0.9658   -4.7572 H   0  0  0  0  0  0  0  0  0  0  0  0
    2.3940    3.5011   -3.7727 H   0  0  0  0  0  0  0  0  0  0  0  0
    2.8045    2.6390   -5.2552 H   0  0  0  0  0  0  0  0  0  0  0  0
    4.2278    2.0610   -3.2219 H   0  0  0  0  0  0  0  0  0  0  0  0
    3.5151    0.6860   -4.0783 H   0  0  0  0  0  0  0  0  0  0  0  0
  1  2  2  0  0  0  0
  2 31  1  0  0  0  0
  2  3  1  0  0  0  0
  3 54  1  0  0  0  0
  4  5  1  0  0  0  0
  4  2  1  0  0  0  0
  5  6  1  0  0  0  0
  6  7  1  0  0  0  0
  6 21  2  0  0  0  0
  7  8  2  0  0  0  0
  8  9  1  0  0  0  0
  8 55  1  0  0  0  0
  9 10  1  0  0  0  0
 10 13  1  0  0  0  0
 10 12  1  0  0  0  0
 11 10  1  0  0  0  0
 14 56  1  0  0  0  0
 14  9  2  0  0  0  0
 15 14  1  0  0  0  0
 16 19  1  0  0  0  0
 16 15  1  0  0  0  0
 17 16  1  0  0  0  0
 18 16  1  0  0  0  0
 20 15  2  0  0  0  0
 20  7  1  0  0  0  0
 21 58  1  0  0  0  0
 22 21  1  0  0  0  0
 22 27  1  0  0  0  0
 23 24  1  0  0  0  0
 23 22  2  0  0  0  0
 24 60  1  0  0  0  0
 24 25  1  0  0  0  0
 25 62  1  0  0  0  0
 26 27  1  0  0  0  0
 26 63  1  0  0  0  0
 26 25  1  0  0  0  0
 27 65  1  0  0  0  0
 28  5  2  0  0  0  0
 28 23  1  0  0  0  0
 29 28  1  0  0  0  0
 29 30  2  0  0  0  0
 30 31  1  0  0  0  0
 32 30  1  0  0  0  0
 32 33  1  0  0  0  0
 33 46  2  0  0  0  0
 33 34  1  0  0  0  0
 34 35  2  0  0  0  0
 35 40  1  0  0  0  0
 35 36  1  0  0  0  0
 36 39  1  0  0  0  0
 36 38  1  0  0  0  0
 37 36  1  0  0  0  0
 40 68  1  0  0  0  0
 41 42  1  0  0  0  0
 41 40  2  0  0  0  0
 42 45  1  0  0  0  0
 42 43  1  0  0  0  0
 44 42  1  0  0  0  0
 46 41  1  0  0  0  0
 47 32  2  0  0  0  0
 48 49  2  0  0  0  0
 48 47  1  0  0  0  0
 49 29  1  0  0  0  0
 50 71  1  0  0  0  0
 50 49  1  0  0  0  0
 51 52  1  0  0  0  0
 51 50  1  0  0  0  0
 52 75  1  0  0  0  0
 52 53  1  0  0  0  0
 53 77  1  0  0  0  0
 53 48  1  0  0  0  0
 57 20  1  0  0  0  0
 59 24  1  0  0  0  0
 61 25  1  0  0  0  0
 64 26  1  0  0  0  0
 66 27  1  0  0  0  0
 67 34  1  0  0  0  0
 69 46  1  0  0  0  0
 70 47  1  0  0  0  0
 72 50  1  0  0  0  0
 73 51  1  0  0  0  0
 74 51  1  0  0  0  0
 76 52  1  0  0  0  0
 78 53  1  0  0  0  0
M  END
$$$$
