O=P1(O)OC2=C(C3=C(F)C=C(OC)C=C3F)C=C4C(C=CC=C4)=[C@]2[C@]5=C(O1)C(C6=C(F)C=C(OC)C=C6F)=CC7=C5C=CC=C7
 OpenBabel09032010373D

 66 72  0  0  0  0  0  0  0  0999 V2000
    0.8994    2.4746    0.9863 O   0  0  0  0  0  0  0  0  0  0  0  0
    0.1403    1.5181    0.1208 P   0  0  0  0  0  0  0  0  0  0  0  0
   -0.6883    2.3120   -1.0065 O   0  0  0  0  0  0  0  0  0  0  0  0
    1.0405    0.5019   -0.7424 O   0  0  0  0  0  0  0  0  0  0  0  0
    1.5240   -0.6097   -0.0877 C   0  0  0  0  0  0  0  0  0  0  0  0
    2.9052   -0.6463    0.1728 C   0  0  0  0  0  0  0  0  0  0  0  0
    3.8008    0.4592   -0.1998 C   0  0  0  0  0  0  0  0  0  0  0  0
    4.0344    0.8030   -1.5351 C   0  0  0  0  0  0  0  0  0  0  0  0
    3.4620    0.0983   -2.5232 F   0  0  0  0  0  0  0  0  0  0  0  0
    4.8645    1.8680   -1.8845 C   0  0  0  0  0  0  0  0  0  0  0  0
    5.4904    2.6279   -0.8968 C   0  0  0  0  0  0  0  0  0  0  0  0
    6.2722    3.6463   -1.3649 O   0  0  0  0  0  0  0  0  0  0  0  0
    6.8984    4.4771   -0.3935 C   0  0  0  0  0  0  0  0  0  0  0  0
    5.2826    2.3014    0.4402 C   0  0  0  0  0  0  0  0  0  0  0  0
    4.4506    1.2292    0.7724 C   0  0  0  0  0  0  0  0  0  0  0  0
    4.2819    0.9458    2.0737 F   0  0  0  0  0  0  0  0  0  0  0  0
    3.4109   -1.7715    0.8266 C   0  0  0  0  0  0  0  0  0  0  0  0
    2.5758   -2.8140    1.2414 C   0  0  0  0  0  0  0  0  0  0  0  0
    1.1804   -2.7606    0.9786 C   0  0  0  0  0  0  0  0  0  0  0  0
    0.3997   -3.8113    1.5253 C   0  0  0  0  0  0  0  0  0  0  0  0
    0.9632   -4.8816    2.2252 C   0  0  0  0  0  0  0  0  0  0  0  0
    2.3333   -4.9311    2.4230 C   0  0  0  0  0  0  0  0  0  0  0  0
    3.1325   -3.8990    1.9402 C   0  0  0  0  0  0  0  0  0  0  0  0
    0.6231   -1.6523    0.2425 C   0  0  0  0  0  0  0  0  0  0  0  0
   -0.7660   -1.5647   -0.1641 C   0  0  0  0  0  0  0  0  0  0  0  0
   -1.5464   -0.4299    0.1821 C   0  0  0  0  0  0  0  0  0  0  0  0
   -0.9664    0.6191    0.8654 O   0  0  0  0  0  0  0  0  0  0  0  0
   -2.9258   -0.3199   -0.0738 C   0  0  0  0  0  0  0  0  0  0  0  0
   -3.7057    0.8561    0.3388 C   0  0  0  0  0  0  0  0  0  0  0  0
   -4.2370    1.7469   -0.6009 C   0  0  0  0  0  0  0  0  0  0  0  0
   -4.0542    1.5276   -1.9127 F   0  0  0  0  0  0  0  0  0  0  0  0
   -4.9680    2.8770   -0.2243 C   0  0  0  0  0  0  0  0  0  0  0  0
   -5.1882    3.1418    1.1245 C   0  0  0  0  0  0  0  0  0  0  0  0
   -5.8817    4.2035    1.6338 O   0  0  0  0  0  0  0  0  0  0  0  0
   -6.4070    5.1402    0.7003 C   0  0  0  0  0  0  0  0  0  0  0  0
   -4.6747    2.2646    2.0794 C   0  0  0  0  0  0  0  0  0  0  0  0
   -3.9475    1.1413    1.6863 C   0  0  0  0  0  0  0  0  0  0  0  0
   -3.4871    0.3189    2.6417 F   0  0  0  0  0  0  0  0  0  0  0  0
   -3.5506   -1.3705   -0.7480 C   0  0  0  0  0  0  0  0  0  0  0  0
   -2.8331   -2.4877   -1.1846 C   0  0  0  0  0  0  0  0  0  0  0  0
   -1.4406   -2.5908   -0.9217 C   0  0  0  0  0  0  0  0  0  0  0  0
   -0.7798   -3.7107   -1.4899 C   0  0  0  0  0  0  0  0  0  0  0  0
   -1.4561   -4.7001   -2.2089 C   0  0  0  0  0  0  0  0  0  0  0  0
   -2.8232   -4.5965   -2.4052 C   0  0  0  0  0  0  0  0  0  0  0  0
   -3.5048   -3.4925   -1.9023 C   0  0  0  0  0  0  0  0  0  0  0  0
   -0.2133    3.1241   -1.2577 H   0  0  0  0  0  0  0  0  0  0  0  0
    5.0158    2.0993   -2.9350 H   0  0  0  0  0  0  0  0  0  0  0  0
    6.1550    4.9830    0.2314 H   0  0  0  0  0  0  0  0  0  0  0  0
    7.4650    5.2463   -0.9270 H   0  0  0  0  0  0  0  0  0  0  0  0
    7.6049    3.9049    0.2166 H   0  0  0  0  0  0  0  0  0  0  0  0
    5.7400    2.8512    1.2545 H   0  0  0  0  0  0  0  0  0  0  0  0
    4.4782   -1.8212    1.0414 H   0  0  0  0  0  0  0  0  0  0  0  0
   -0.6843   -3.8041    1.4244 H   0  0  0  0  0  0  0  0  0  0  0  0
    0.3239   -5.6674    2.6186 H   0  0  0  0  0  0  0  0  0  0  0  0
    2.7787   -5.7587    2.9681 H   0  0  0  0  0  0  0  0  0  0  0  0
    4.2035   -3.9418    2.1301 H   0  0  0  0  0  0  0  0  0  0  0  0
   -5.3425    3.5178   -1.0139 H   0  0  0  0  0  0  0  0  0  0  0  0
   -6.9177    5.9255    1.2660 H   0  0  0  0  0  0  0  0  0  0  0  0
   -5.6059    5.6123    0.1220 H   0  0  0  0  0  0  0  0  0  0  0  0
   -7.1447    4.6689    0.0426 H   0  0  0  0  0  0  0  0  0  0  0  0
   -4.8345    2.4469    3.1381 H   0  0  0  0  0  0  0  0  0  0  0  0
   -4.6178   -1.3018   -0.9568 H   0  0  0  0  0  0  0  0  0  0  0  0
    0.2984   -3.8245   -1.3908 H   0  0  0  0  0  0  0  0  0  0  0  0
   -0.9059   -5.5435   -2.6175 H   0  0  0  0  0  0  0  0  0  0  0  0
   -3.3564   -5.3610   -2.9637 H   0  0  0  0  0  0  0  0  0  0  0  0
   -4.5743   -3.4151   -2.0898 H   0  0  0  0  0  0  0  0  0  0  0  0
  2 27  1  0  0  0  0
  2  1  2  0  0  0  0
  3  2  1  0  0  0  0
  4  5  1  0  0  0  0
  4  2  1  0  0  0  0
  5  6  2  0  0  0  0
  5 24  1  0  0  0  0
  6 17  1  0  0  0  0
  7  6  1  0  0  0  0
  7 15  2  0  0  0  0
  8  7  1  0  0  0  0
  9  8  1  0  0  0  0
 10  8  2  0  0  0  0
 10 11  1  0  0  0  0
 11 14  2  0  0  0  0
 12 11  1  0  0  0  0
 12 13  1  0  0  0  0
 13 50  1  0  0  0  0
 13 48  1  0  0  0  0
 14 15  1  0  0  0  0
 14 51  1  0  0  0  0
 15 16  1  0  0  0  0
 17 52  1  0  0  0  0
 17 18  2  0  0  0  0
 18 23  1  0  0  0  0
 19 18  1  0  0  0  0
 19 20  1  0  0  0  0
 20 21  2  0  0  0  0
 21 22  1  0  0  0  0
 21 54  1  0  0  0  0
 22 55  1  0  0  0  0
 23 56  1  0  0  0  0
 23 22  2  0  0  0  0
 24 19  2  0  0  0  0
 25 26  2  0  0  0  0
 25 24  1  0  0  0  0
 26 27  1  0  0  0  0
 28 26  1  0  0  0  0
 28 29  1  0  0  0  0
 29 37  2  0  0  0  0
 30 32  2  0  0  0  0
 30 29  1  0  0  0  0
 31 30  1  0  0  0  0
 32 33  1  0  0  0  0
 33 34  1  0  0  0  0
 33 36  2  0  0  0  0
 35 58  1  0  0  0  0
 35 34  1  0  0  0  0
 36 61  1  0  0  0  0
 37 36  1  0  0  0  0
 37 38  1  0  0  0  0
 39 28  2  0  0  0  0
 40 41  1  0  0  0  0
 40 39  1  0  0  0  0
 41 25  1  0  0  0  0
 42 63  1  0  0  0  0
 42 41  2  0  0  0  0
 43 42  1  0  0  0  0
 44 43  2  0  0  0  0
 44 45  1  0  0  0  0
 45 40  2  0  0  0  0
 46  3  1  0  0  0  0
 47 10  1  0  0  0  0
 49 13  1  0  0  0  0
 53 20  1  0  0  0  0
 57 32  1  0  0  0  0
 59 35  1  0  0  0  0
 60 35  1  0  0  0  0
 62 39  1  0  0  0  0
 64 43  1  0  0  0  0
 65 44  1  0  0  0  0
 66 45  1  0  0  0  0
M  END
$$$$
