O=P1(O)OC2=C(C3=CC(C)=C(OC(C)C)C(C)=C3)C=C4C(C=CC=C4)=C2C5=C(O1)C(C6=CC(C)=C(OC(C)C)C(C)=C6)=CC7=C5C=CC=C7
 OpenBabel09032010373D

 90 96  0  0  0  0  0  0  0  0999 V2000
    0.4554    0.6633    1.6000 O   0  0  0  0  0  0  0  0  0  0  0  0
   -0.0498    0.1777    0.2773 P   0  0  0  0  0  0  0  0  0  0  0  0
   -0.9022    1.3135   -0.4798 O   0  0  0  0  0  0  0  0  0  0  0  0
    1.0582   -0.2500   -0.8107 O   0  0  0  0  0  0  0  0  0  0  0  0
    1.6081   -1.5089   -0.6973 C   0  0  0  0  0  0  0  0  0  0  0  0
    2.9665   -1.5806   -0.3449 C   0  0  0  0  0  0  0  0  0  0  0  0
    3.7808   -0.3842   -0.0961 C   0  0  0  0  0  0  0  0  0  0  0  0
    3.7406    0.2686    1.1428 C   0  0  0  0  0  0  0  0  0  0  0  0
    4.5221    1.4076    1.3964 C   0  0  0  0  0  0  0  0  0  0  0  0
    4.4597    2.0378    2.7582 C   0  0  0  0  0  0  0  0  0  0  0  0
    5.3210    1.9256    0.3630 C   0  0  0  0  0  0  0  0  0  0  0  0
    6.0806    3.0528    0.5589 O   0  0  0  0  0  0  0  0  0  0  0  0
    5.3016    4.2632    0.5258 C   0  0  0  0  0  0  0  0  0  0  0  0
    5.3791    4.8907   -0.8631 C   0  0  0  0  0  0  0  0  0  0  0  0
    5.9018    5.2131    1.5588 C   0  0  0  0  0  0  0  0  0  0  0  0
    5.4374    1.2464   -0.8601 C   0  0  0  0  0  0  0  0  0  0  0  0
    6.3512    1.7149   -1.9562 C   0  0  0  0  0  0  0  0  0  0  0  0
    4.6429    0.1104   -1.0843 C   0  0  0  0  0  0  0  0  0  0  0  0
    3.5523   -2.8434   -0.2450 C   0  0  0  0  0  0  0  0  0  0  0  0
    2.8116   -4.0093   -0.4555 C   0  0  0  0  0  0  0  0  0  0  0  0
    1.4406   -3.9283   -0.8197 C   0  0  0  0  0  0  0  0  0  0  0  0
    0.7470   -5.1618   -0.9220 C   0  0  0  0  0  0  0  0  0  0  0  0
    1.3771   -6.3965   -0.7438 C   0  0  0  0  0  0  0  0  0  0  0  0
    2.7271   -6.4437   -0.4363 C   0  0  0  0  0  0  0  0  0  0  0  0
    3.4370   -5.2562   -0.2862 C   0  0  0  0  0  0  0  0  0  0  0  0
    0.8153   -2.6425   -1.0138 C   0  0  0  0  0  0  0  0  0  0  0  0
   -0.5323   -2.4681   -1.5215 C   0  0  0  0  0  0  0  0  0  0  0  0
   -1.4665   -1.6790   -0.8054 C   0  0  0  0  0  0  0  0  0  0  0  0
   -1.0743   -1.0616    0.3618 O   0  0  0  0  0  0  0  0  0  0  0  0
   -2.8147   -1.5218   -1.1748 C   0  0  0  0  0  0  0  0  0  0  0  0
   -3.7506   -0.6931   -0.3969 C   0  0  0  0  0  0  0  0  0  0  0  0
   -4.1314   -1.0548    0.9032 C   0  0  0  0  0  0  0  0  0  0  0  0
   -5.0142   -0.2637    1.6572 C   0  0  0  0  0  0  0  0  0  0  0  0
   -5.4209   -0.7341    3.0247 C   0  0  0  0  0  0  0  0  0  0  0  0
   -5.4792    0.9437    1.1098 C   0  0  0  0  0  0  0  0  0  0  0  0
   -6.3249    1.7594    1.8196 O   0  0  0  0  0  0  0  0  0  0  0  0
   -5.6516    2.5154    2.8430 C   0  0  0  0  0  0  0  0  0  0  0  0
   -6.6065    2.6181    4.0291 C   0  0  0  0  0  0  0  0  0  0  0  0
   -5.3185    3.9101    2.3210 C   0  0  0  0  0  0  0  0  0  0  0  0
   -5.1734    1.2923   -0.2150 C   0  0  0  0  0  0  0  0  0  0  0  0
   -5.7278    2.5261   -0.8692 C   0  0  0  0  0  0  0  0  0  0  0  0
   -4.2904    0.4801   -0.9446 C   0  0  0  0  0  0  0  0  0  0  0  0
   -3.2512   -2.1675   -2.3320 C   0  0  0  0  0  0  0  0  0  0  0  0
   -2.3759   -2.9147   -3.1252 C   0  0  0  0  0  0  0  0  0  0  0  0
   -1.0120   -3.0545   -2.7503 C   0  0  0  0  0  0  0  0  0  0  0  0
   -0.1791   -3.7389   -3.6729 C   0  0  0  0  0  0  0  0  0  0  0  0
   -0.6691   -4.3111   -4.8501 C   0  0  0  0  0  0  0  0  0  0  0  0
   -2.0143   -4.2022   -5.1613 C   0  0  0  0  0  0  0  0  0  0  0  0
   -2.8598   -3.5013   -4.3069 C   0  0  0  0  0  0  0  0  0  0  0  0
   -1.4960    1.7626    0.1486 H   0  0  0  0  0  0  0  0  0  0  0  0
    3.0914   -0.1192    1.9275 H   0  0  0  0  0  0  0  0  0  0  0  0
    4.1396    1.3116    3.5135 H   0  0  0  0  0  0  0  0  0  0  0  0
    5.4463    2.3961    3.0677 H   0  0  0  0  0  0  0  0  0  0  0  0
    3.7498    2.8699    2.7622 H   0  0  0  0  0  0  0  0  0  0  0  0
    4.2487    4.0887    0.7799 H   0  0  0  0  0  0  0  0  0  0  0  0
    4.8681    4.2621   -1.5984 H   0  0  0  0  0  0  0  0  0  0  0  0
    4.9053    5.8772   -0.8804 H   0  0  0  0  0  0  0  0  0  0  0  0
    6.4185    4.9915   -1.1937 H   0  0  0  0  0  0  0  0  0  0  0  0
    5.8628    4.7707    2.5592 H   0  0  0  0  0  0  0  0  0  0  0  0
    5.3651    6.1665    1.5817 H   0  0  0  0  0  0  0  0  0  0  0  0
    6.9582    5.4100    1.3440 H   0  0  0  0  0  0  0  0  0  0  0  0
    7.1947    2.2913   -1.5641 H   0  0  0  0  0  0  0  0  0  0  0  0
    6.7777    0.8595   -2.4917 H   0  0  0  0  0  0  0  0  0  0  0  0
    5.7984    2.3321   -2.6703 H   0  0  0  0  0  0  0  0  0  0  0  0
    4.6979   -0.3991   -2.0452 H   0  0  0  0  0  0  0  0  0  0  0  0
    4.6046   -2.9112    0.0310 H   0  0  0  0  0  0  0  0  0  0  0  0
   -0.3206   -5.1787   -1.1346 H   0  0  0  0  0  0  0  0  0  0  0  0
    0.8052   -7.3154   -0.8414 H   0  0  0  0  0  0  0  0  0  0  0  0
    3.2245   -7.3994   -0.2957 H   0  0  0  0  0  0  0  0  0  0  0  0
    4.4910   -5.3127   -0.0195 H   0  0  0  0  0  0  0  0  0  0  0  0
   -3.7411   -1.9777    1.3316 H   0  0  0  0  0  0  0  0  0  0  0  0
   -6.4743   -0.5087    3.2175 H   0  0  0  0  0  0  0  0  0  0  0  0
   -4.7992   -0.2632    3.7916 H   0  0  0  0  0  0  0  0  0  0  0  0
   -5.3116   -1.8204    3.1154 H   0  0  0  0  0  0  0  0  0  0  0  0
   -4.7265    2.0302    3.1783 H   0  0  0  0  0  0  0  0  0  0  0  0
   -6.1641    3.1944    4.8474 H   0  0  0  0  0  0  0  0  0  0  0  0
   -6.8621    1.6228    4.4062 H   0  0  0  0  0  0  0  0  0  0  0  0
   -7.5488    3.0934    3.7343 H   0  0  0  0  0  0  0  0  0  0  0  0
   -6.2022    4.3915    1.8884 H   0  0  0  0  0  0  0  0  0  0  0  0
   -4.9224    4.5483    3.1171 H   0  0  0  0  0  0  0  0  0  0  0  0
   -4.5640    3.8550    1.5305 H   0  0  0  0  0  0  0  0  0  0  0  0
   -5.9116    2.3461   -1.9342 H   0  0  0  0  0  0  0  0  0  0  0  0
   -5.0195    3.3542   -0.7735 H   0  0  0  0  0  0  0  0  0  0  0  0
   -6.6859    2.8228   -0.4315 H   0  0  0  0  0  0  0  0  0  0  0  0
   -4.0152    0.7695   -1.9587 H   0  0  0  0  0  0  0  0  0  0  0  0
   -4.2947   -2.0641   -2.6286 H   0  0  0  0  0  0  0  0  0  0  0  0
    0.8908   -3.8269   -3.4918 H   0  0  0  0  0  0  0  0  0  0  0  0
    0.0080   -4.8336   -5.5206 H   0  0  0  0  0  0  0  0  0  0  0  0
   -2.4030   -4.6433   -6.0749 H   0  0  0  0  0  0  0  0  0  0  0  0
   -3.9084   -3.4031   -4.5825 H   0  0  0  0  0  0  0  0  0  0  0  0
  2 29  1  0  0  0  0
  2  1  2  0  0  0  0
  3 50  1  0  0  0  0
  3  2  1  0  0  0  0
  4  5  1  0  0  0  0
  4  2  1  0  0  0  0
  5  6  2  0  0  0  0
  6 19  1  0  0  0  0
  6  7  1  0  0  0  0
  7  8  2  0  0  0  0
  8  9  1  0  0  0  0
  8 51  1  0  0  0  0
  9 10  1  0  0  0  0
 10 54  1  0  0  0  0
 10 53  1  0  0  0  0
 10 52  1  0  0  0  0
 11 12  1  0  0  0  0
 11  9  2  0  0  0  0
 13 12  1  0  0  0  0
 13 55  1  0  0  0  0
 13 15  1  0  0  0  0
 14 13  1  0  0  0  0
 15 60  1  0  0  0  0
 15 59  1  0  0  0  0
 16 11  1  0  0  0  0
 17 62  1  0  0  0  0
 17 16  1  0  0  0  0
 18 16  2  0  0  0  0
 18  7  1  0  0  0  0
 19 66  1  0  0  0  0
 20 25  1  0  0  0  0
 20 19  2  0  0  0  0
 21 20  1  0  0  0  0
 22 21  1  0  0  0  0
 22 23  2  0  0  0  0
 23 24  1  0  0  0  0
 24 69  1  0  0  0  0
 24 25  2  0  0  0  0
 25 70  1  0  0  0  0
 26 21  2  0  0  0  0
 26  5  1  0  0  0  0
 27 26  1  0  0  0  0
 27 28  2  0  0  0  0
 28 29  1  0  0  0  0
 30 28  1  0  0  0  0
 30 31  1  0  0  0  0
 31 32  1  0  0  0  0
 32 71  1  0  0  0  0
 32 33  2  0  0  0  0
 33 34  1  0  0  0  0
 34 74  1  0  0  0  0
 34 72  1  0  0  0  0
 34 73  1  0  0  0  0
 35 33  1  0  0  0  0
 35 36  1  0  0  0  0
 36 37  1  0  0  0  0
 37 75  1  0  0  0  0
 37 38  1  0  0  0  0
 38 77  1  0  0  0  0
 38 76  1  0  0  0  0
 39 37  1  0  0  0  0
 39 80  1  0  0  0  0
 40 35  2  0  0  0  0
 41 83  1  0  0  0  0
 41 84  1  0  0  0  0
 41 40  1  0  0  0  0
 42 31  2  0  0  0  0
 42 40  1  0  0  0  0
 43 30  2  0  0  0  0
 44 45  1  0  0  0  0
 44 43  1  0  0  0  0
 45 27  1  0  0  0  0
 46 87  1  0  0  0  0
 46 45  2  0  0  0  0
 47 46  1  0  0  0  0
 48 47  2  0  0  0  0
 48 49  1  0  0  0  0
 49 44  2  0  0  0  0
 56 14  1  0  0  0  0
 57 14  1  0  0  0  0
 58 14  1  0  0  0  0
 61 15  1  0  0  0  0
 63 17  1  0  0  0  0
 64 17  1  0  0  0  0
 65 18  1  0  0  0  0
 67 22  1  0  0  0  0
 68 23  1  0  0  0  0
 78 38  1  0  0  0  0
 79 39  1  0  0  0  0
 81 39  1  0  0  0  0
 82 41  1  0  0  0  0
 85 42  1  0  0  0  0
 86 43  1  0  0  0  0
 88 47  1  0  0  0  0
 89 48  1  0  0  0  0
 90 49  1  0  0  0  0
M  END
$$$$
