O=P1(O)OC2=C(C3=C(C=CC=C4)C4=C(C5=CC(C=CC=C6)=C6C=C5)C7=C3C=CC=C7)C=C8C(C=CC=C8)=[C@]2[C@]9=C(O1)C(C%10=C(C=CC=C%11)C%11=C(C%12=CC=C(C=CC=C%13)C%13=C%12)C%14=C%10C=CC=C%14)=CC%15=C9C=CC=C%15
 OpenBabel09032010373D

114128  0  0  0  0  0  0  0  0999 V2000
    0.5500    1.1682   -0.0251 O   0  0  0  0  0  0  0  0  0  0  0  0
    0.0600   -0.2418    0.0565 P   0  0  0  0  0  0  0  0  0  0  0  0
   -0.5673   -0.7219   -1.3438 O   0  0  0  0  0  0  0  0  0  0  0  0
   -1.1335   -0.4853    1.1099 O   0  0  0  0  0  0  0  0  0  0  0  0
   -1.5550   -1.7686    1.3756 C   0  0  0  0  0  0  0  0  0  0  0  0
   -2.8897   -2.0670    1.0377 C   0  0  0  0  0  0  0  0  0  0  0  0
   -3.7946   -1.0567    0.4266 C   0  0  0  0  0  0  0  0  0  0  0  0
   -4.0004   -1.0506   -0.9879 C   0  0  0  0  0  0  0  0  0  0  0  0
   -3.3809   -1.9901   -1.8553 C   0  0  0  0  0  0  0  0  0  0  0  0
   -3.5701   -1.9791   -3.2363 C   0  0  0  0  0  0  0  0  0  0  0  0
   -4.3922   -1.0240   -3.7999 C   0  0  0  0  0  0  0  0  0  0  0  0
   -5.0167   -0.0887   -2.9767 C   0  0  0  0  0  0  0  0  0  0  0  0
   -4.8449   -0.0729   -1.5663 C   0  0  0  0  0  0  0  0  0  0  0  0
   -5.4874    0.8896   -0.7285 C   0  0  0  0  0  0  0  0  0  0  0  0
   -6.3637    1.9190   -1.3363 C   0  0  0  0  0  0  0  0  0  0  0  0
   -5.8367    3.1580   -1.7373 C   0  0  0  0  0  0  0  0  0  0  0  0
   -6.6515    4.1438   -2.3179 C   0  0  0  0  0  0  0  0  0  0  0  0
   -6.1264    5.3824   -2.7196 C   0  0  0  0  0  0  0  0  0  0  0  0
   -6.9481    6.3522   -3.2959 C   0  0  0  0  0  0  0  0  0  0  0  0
   -8.3041    6.0969   -3.4781 C   0  0  0  0  0  0  0  0  0  0  0  0
   -8.8413    4.8704   -3.0836 C   0  0  0  0  0  0  0  0  0  0  0  0
   -8.0283    3.8842   -2.5020 C   0  0  0  0  0  0  0  0  0  0  0  0
   -8.5536    2.6470   -2.0996 C   0  0  0  0  0  0  0  0  0  0  0  0
   -7.7311    1.6761   -1.5233 C   0  0  0  0  0  0  0  0  0  0  0  0
   -5.2933    0.8755    0.6866 C   0  0  0  0  0  0  0  0  0  0  0  0
   -4.4480   -0.1004    1.2659 C   0  0  0  0  0  0  0  0  0  0  0  0
   -4.2854   -0.0851    2.6777 C   0  0  0  0  0  0  0  0  0  0  0  0
   -4.9138    0.8498    3.4987 C   0  0  0  0  0  0  0  0  0  0  0  0
   -5.7346    1.8043    2.9320 C   0  0  0  0  0  0  0  0  0  0  0  0
   -5.9199    1.8135    1.5504 C   0  0  0  0  0  0  0  0  0  0  0  0
   -3.3725   -3.3465    1.3179 C   0  0  0  0  0  0  0  0  0  0  0  0
   -2.5486   -4.3221    1.8810 C   0  0  0  0  0  0  0  0  0  0  0  0
   -1.2074   -4.0091    2.2326 C   0  0  0  0  0  0  0  0  0  0  0  0
   -0.4210   -5.0873    2.7128 C   0  0  0  0  0  0  0  0  0  0  0  0
   -0.9373   -6.3728    2.8985 C   0  0  0  0  0  0  0  0  0  0  0  0
   -2.2629   -6.6332    2.5919 C   0  0  0  0  0  0  0  0  0  0  0  0
   -3.0612   -5.6147    2.0806 C   0  0  0  0  0  0  0  0  0  0  0  0
   -0.6968   -2.6713    2.0504 C   0  0  0  0  0  0  0  0  0  0  0  0
    0.5953   -2.2291    2.5424 C   0  0  0  0  0  0  0  0  0  0  0  0
    1.5159   -1.5991    1.6703 C   0  0  0  0  0  0  0  0  0  0  0  0
    1.1588   -1.3756    0.3612 O   0  0  0  0  0  0  0  0  0  0  0  0
    2.8344   -1.2680    2.0319 C   0  0  0  0  0  0  0  0  0  0  0  0
    3.7857   -0.6549    1.0686 C   0  0  0  0  0  0  0  0  0  0  0  0
    4.4943   -1.4887    0.1484 C   0  0  0  0  0  0  0  0  0  0  0  0
    4.3438   -2.9018    0.1252 C   0  0  0  0  0  0  0  0  0  0  0  0
    5.0242   -3.7166   -0.7783 C   0  0  0  0  0  0  0  0  0  0  0  0
    5.8845   -3.1421   -1.6927 C   0  0  0  0  0  0  0  0  0  0  0  0
    6.0586   -1.7589   -1.6926 C   0  0  0  0  0  0  0  0  0  0  0  0
    5.3822   -0.9013   -0.7838 C   0  0  0  0  0  0  0  0  0  0  0  0
    5.5679    0.5153   -0.7846 C   0  0  0  0  0  0  0  0  0  0  0  0
    6.4817    1.1331   -1.7744 C   0  0  0  0  0  0  0  0  0  0  0  0
    7.8416    1.3048   -1.4858 C   0  0  0  0  0  0  0  0  0  0  0  0
    8.6970    1.8932   -2.4200 C   0  0  0  0  0  0  0  0  0  0  0  0
    8.2134    2.3244   -3.6647 C   0  0  0  0  0  0  0  0  0  0  0  0
    9.0604    2.9194   -4.6137 C   0  0  0  0  0  0  0  0  0  0  0  0
    8.5634    3.3449   -5.8470 C   0  0  0  0  0  0  0  0  0  0  0  0
    7.2141    3.1808   -6.1465 C   0  0  0  0  0  0  0  0  0  0  0  0
    6.3594    2.5904   -5.2144 C   0  0  0  0  0  0  0  0  0  0  0  0
    6.8439    2.1574   -3.9697 C   0  0  0  0  0  0  0  0  0  0  0  0
    5.9959    1.5630   -3.0209 C   0  0  0  0  0  0  0  0  0  0  0  0
    4.8762    1.3467    0.1491 C   0  0  0  0  0  0  0  0  0  0  0  0
    3.9794    0.7619    1.0744 C   0  0  0  0  0  0  0  0  0  0  0  0
    3.2970    1.6246    1.9746 C   0  0  0  0  0  0  0  0  0  0  0  0
    3.4870    3.0057    1.9838 C   0  0  0  0  0  0  0  0  0  0  0  0
    4.3691    3.5744    1.0869 C   0  0  0  0  0  0  0  0  0  0  0  0
    5.0481    2.7569    0.1853 C   0  0  0  0  0  0  0  0  0  0  0  0
    3.2478   -1.5377    3.3380 C   0  0  0  0  0  0  0  0  0  0  0  0
    2.3680   -2.0755    4.2792 C   0  0  0  0  0  0  0  0  0  0  0  0
    1.0359   -2.4026    3.9067 C   0  0  0  0  0  0  0  0  0  0  0  0
    0.1878   -2.8459    4.9539 C   0  0  0  0  0  0  0  0  0  0  0  0
    0.6374   -3.0234    6.2656 C   0  0  0  0  0  0  0  0  0  0  0  0
    1.9563   -2.7452    6.5847 C   0  0  0  0  0  0  0  0  0  0  0  0
    2.8135   -2.2672    5.5980 C   0  0  0  0  0  0  0  0  0  0  0  0
   -1.0799   -0.0021   -1.7549 H   0  0  0  0  0  0  0  0  0  0  0  0
   -2.7123   -2.7539   -1.4603 H   0  0  0  0  0  0  0  0  0  0  0  0
   -3.0714   -2.7151   -3.8612 H   0  0  0  0  0  0  0  0  0  0  0  0
   -4.5533   -0.9999   -4.8741 H   0  0  0  0  0  0  0  0  0  0  0  0
   -5.6567    0.6453   -3.4647 H   0  0  0  0  0  0  0  0  0  0  0  0
   -4.7750    3.3516   -1.5910 H   0  0  0  0  0  0  0  0  0  0  0  0
   -5.0689    5.5999   -2.5854 H   0  0  0  0  0  0  0  0  0  0  0  0
   -6.5271    7.3061   -3.6019 H   0  0  0  0  0  0  0  0  0  0  0  0
   -8.9448    6.8514   -3.9270 H   0  0  0  0  0  0  0  0  0  0  0  0
   -9.9029    4.6882   -3.2338 H   0  0  0  0  0  0  0  0  0  0  0  0
   -9.6111    2.4288   -2.2318 H   0  0  0  0  0  0  0  0  0  0  0  0
   -8.1623    0.7243   -1.2192 H   0  0  0  0  0  0  0  0  0  0  0  0
   -3.6473   -0.8164    3.1702 H   0  0  0  0  0  0  0  0  0  0  0  0
   -4.7545    0.8268    4.5732 H   0  0  0  0  0  0  0  0  0  0  0  0
   -6.2329    2.5426    3.5541 H   0  0  0  0  0  0  0  0  0  0  0  0
   -6.5766    2.5836    1.1483 H   0  0  0  0  0  0  0  0  0  0  0  0
   -4.4051   -3.5847    1.0636 H   0  0  0  0  0  0  0  0  0  0  0  0
    0.6334   -4.9414    2.9410 H   0  0  0  0  0  0  0  0  0  0  0  0
   -0.2956   -7.1650    3.2758 H   0  0  0  0  0  0  0  0  0  0  0  0
   -2.6734   -7.6291    2.7311 H   0  0  0  0  0  0  0  0  0  0  0  0
   -4.0936   -5.8459    1.8232 H   0  0  0  0  0  0  0  0  0  0  0  0
    3.6731   -3.3981    0.8239 H   0  0  0  0  0  0  0  0  0  0  0  0
    4.8732   -4.7922   -0.7638 H   0  0  0  0  0  0  0  0  0  0  0  0
    6.4220   -3.7590   -2.4073 H   0  0  0  0  0  0  0  0  0  0  0  0
    6.7463   -1.3496   -2.4311 H   0  0  0  0  0  0  0  0  0  0  0  0
    8.2410    0.9806   -0.5269 H   0  0  0  0  0  0  0  0  0  0  0  0
    9.7480    2.0132   -2.1665 H   0  0  0  0  0  0  0  0  0  0  0  0
   10.1174    3.0563   -4.3970 H   0  0  0  0  0  0  0  0  0  0  0  0
    9.2302    3.8043   -6.5721 H   0  0  0  0  0  0  0  0  0  0  0  0
    6.8246    3.5116   -7.1055 H   0  0  0  0  0  0  0  0  0  0  0  0
    5.3081    2.4709   -5.4670 H   0  0  0  0  0  0  0  0  0  0  0  0
    4.9385    1.4323   -3.2471 H   0  0  0  0  0  0  0  0  0  0  0  0
    2.5787    1.2271    2.6886 H   0  0  0  0  0  0  0  0  0  0  0  0
    2.9364    3.6275    2.6837 H   0  0  0  0  0  0  0  0  0  0  0  0
    4.5260    4.6490    1.0748 H   0  0  0  0  0  0  0  0  0  0  0  0
    5.7264    3.2497   -0.5094 H   0  0  0  0  0  0  0  0  0  0  0  0
    4.2696   -1.2900    3.6252 H   0  0  0  0  0  0  0  0  0  0  0  0
   -0.8636   -3.0516    4.7622 H   0  0  0  0  0  0  0  0  0  0  0  0
   -0.0502   -3.3733    7.0314 H   0  0  0  0  0  0  0  0  0  0  0  0
    2.3160   -2.8801    7.6010 H   0  0  0  0  0  0  0  0  0  0  0  0
    3.8395   -2.0287    5.8742 H   0  0  0  0  0  0  0  0  0  0  0  0
  1  2  2  0  0  0  0
  2 41  1  0  0  0  0
  2  4  1  0  0  0  0
  3  2  1  0  0  0  0
  4  5  1  0  0  0  0
  5 38  2  0  0  0  0
  6 31  2  0  0  0  0
  6  5  1  0  0  0  0
  7  6  1  0  0  0  0
  7 26  2  0  0  0  0
  8  7  1  0  0  0  0
  9 75  1  0  0  0  0
  9  8  2  0  0  0  0
 10  9  1  0  0  0  0
 11 10  2  0  0  0  0
 11 12  1  0  0  0  0
 12 13  2  0  0  0  0
 13  8  1  0  0  0  0
 13 14  1  0  0  0  0
 14 25  2  0  0  0  0
 15 14  1  0  0  0  0
 16 79  1  0  0  0  0
 16 15  2  0  0  0  0
 17 16  1  0  0  0  0
 18 80  1  0  0  0  0
 18 17  2  0  0  0  0
 19 18  1  0  0  0  0
 20 19  2  0  0  0  0
 20 21  1  0  0  0  0
 21 22  2  0  0  0  0
 22 17  1  0  0  0  0
 22 23  1  0  0  0  0
 23 24  2  0  0  0  0
 24 15  1  0  0  0  0
 24 85  1  0  0  0  0
 25 26  1  0  0  0  0
 25 30  1  0  0  0  0
 26 27  1  0  0  0  0
 27 86  1  0  0  0  0
 27 28  2  0  0  0  0
 28 87  1  0  0  0  0
 29 28  1  0  0  0  0
 29 88  1  0  0  0  0
 30 29  2  0  0  0  0
 31 32  1  0  0  0  0
 32 37  2  0  0  0  0
 32 33  1  0  0  0  0
 33 34  2  0  0  0  0
 34 35  1  0  0  0  0
 34 91  1  0  0  0  0
 35 92  1  0  0  0  0
 36 93  1  0  0  0  0
 36 35  2  0  0  0  0
 37 36  1  0  0  0  0
 38 33  1  0  0  0  0
 38 39  1  0  0  0  0
 39 69  2  0  0  0  0
 40 42  2  0  0  0  0
 40 39  1  0  0  0  0
 41 40  1  0  0  0  0
 42 67  1  0  0  0  0
 43 62  1  0  0  0  0
 43 42  1  0  0  0  0
 44 43  2  0  0  0  0
 45 44  1  0  0  0  0
 45 95  1  0  0  0  0
 46 96  1  0  0  0  0
 46 45  2  0  0  0  0
 47 48  2  0  0  0  0
 47 46  1  0  0  0  0
 48 49  1  0  0  0  0
 49 44  1  0  0  0  0
 50 49  2  0  0  0  0
 50 61  1  0  0  0  0
 51 52  1  0  0  0  0
 51 50  1  0  0  0  0
 52 99  1  0  0  0  0
 53100  1  0  0  0  0
 53 52  2  0  0  0  0
 54 53  1  0  0  0  0
 55101  1  0  0  0  0
 55 54  2  0  0  0  0
 56 55  1  0  0  0  0
 57 56  2  0  0  0  0
 57 58  1  0  0  0  0
 58 59  2  0  0  0  0
 59 54  1  0  0  0  0
 59 60  1  0  0  0  0
 60 51  2  0  0  0  0
 61 66  2  0  0  0  0
 61 62  1  0  0  0  0
 62 63  2  0  0  0  0
 63 64  1  0  0  0  0
 63106  1  0  0  0  0
 64107  1  0  0  0  0
 65 64  2  0  0  0  0
 66 65  1  0  0  0  0
 67110  1  0  0  0  0
 67 68  2  0  0  0  0
 68 73  1  0  0  0  0
 69 68  1  0  0  0  0
 69 70  1  0  0  0  0
 70 71  2  0  0  0  0
 71 72  1  0  0  0  0
 71112  1  0  0  0  0
 72113  1  0  0  0  0
 73114  1  0  0  0  0
 73 72  2  0  0  0  0
 74  3  1  0  0  0  0
 76 10  1  0  0  0  0
 77 11  1  0  0  0  0
 78 12  1  0  0  0  0
 81 19  1  0  0  0  0
 82 20  1  0  0  0  0
 83 21  1  0  0  0  0
 84 23  1  0  0  0  0
 89 30  1  0  0  0  0
 90 31  1  0  0  0  0
 94 37  1  0  0  0  0
 97 47  1  0  0  0  0
 98 48  1  0  0  0  0
102 56  1  0  0  0  0
103 57  1  0  0  0  0
104 58  1  0  0  0  0
105 60  1  0  0  0  0
108 65  1  0  0  0  0
109 66  1  0  0  0  0
111 70  1  0  0  0  0
M  END
$$$$
