O=P1(O)OC2=C(C3=CC(C4=C(C)C=C(C)C=C4C)=CC(C5=C(C)C=C(C)C=C5C)=C3)C=C6C(CCCC6)=C2C7=C(O1)C(C8=CC(C9=C(C)C=C(C)C=C9C)=CC(C%10=C(C)C=C(C)C=C%10C)=C8)=CC%11=C7CCCC%11
 OpenBabel09032010383D

142152  0  0  0  0  0  0  0  0999 V2000
   -0.6039    0.7005    1.1557 O   0  0  0  0  0  0  0  0  0  0  0  0
    0.0050   -0.2146    0.1377 P   0  0  0  0  0  0  0  0  0  0  0  0
    0.6826   -1.4776    0.8681 O   0  0  0  0  0  0  0  0  0  0  0  0
   -1.0131   -0.9022   -0.9023 O   0  0  0  0  0  0  0  0  0  0  0  0
   -1.4559   -0.1208   -1.9448 C   0  0  0  0  0  0  0  0  0  0  0  0
   -2.7958    0.3086   -1.9175 C   0  0  0  0  0  0  0  0  0  0  0  0
   -3.7112   -0.0576   -0.8229 C   0  0  0  0  0  0  0  0  0  0  0  0
   -3.9474   -1.4017   -0.4974 C   0  0  0  0  0  0  0  0  0  0  0  0
   -4.7356   -1.7660    0.6046 C   0  0  0  0  0  0  0  0  0  0  0  0
   -4.8826   -3.1833    0.9778 C   0  0  0  0  0  0  0  0  0  0  0  0
   -6.0567   -3.9043    0.6506 C   0  0  0  0  0  0  0  0  0  0  0  0
   -7.2052   -3.2527   -0.0761 C   0  0  0  0  0  0  0  0  0  0  0  0
   -6.1693   -5.2577    1.0133 C   0  0  0  0  0  0  0  0  0  0  0  0
   -5.1346   -5.9140    1.6859 C   0  0  0  0  0  0  0  0  0  0  0  0
   -5.2515   -7.3710    2.0233 C   0  0  0  0  0  0  0  0  0  0  0  0
   -3.9673   -5.2087    1.9885 C   0  0  0  0  0  0  0  0  0  0  0  0
   -3.8352   -3.8501    1.6619 C   0  0  0  0  0  0  0  0  0  0  0  0
   -2.5502   -3.1482    2.0253 C   0  0  0  0  0  0  0  0  0  0  0  0
   -5.3298   -0.7541    1.3701 C   0  0  0  0  0  0  0  0  0  0  0  0
   -5.1399    0.5994    1.0571 C   0  0  0  0  0  0  0  0  0  0  0  0
   -5.7501    1.6537    1.8863 C   0  0  0  0  0  0  0  0  0  0  0  0
   -4.9963    2.2995    2.8976 C   0  0  0  0  0  0  0  0  0  0  0  0
   -3.5499    1.9498    3.1482 C   0  0  0  0  0  0  0  0  0  0  0  0
   -5.5910    3.3046    3.6795 C   0  0  0  0  0  0  0  0  0  0  0  0
   -6.9213    3.6825    3.4816 C   0  0  0  0  0  0  0  0  0  0  0  0
   -7.5531    4.7277    4.3525 C   0  0  0  0  0  0  0  0  0  0  0  0
   -7.6708    3.0319    2.4983 C   0  0  0  0  0  0  0  0  0  0  0  0
   -7.1008    2.0329    1.6907 C   0  0  0  0  0  0  0  0  0  0  0  0
   -7.9601    1.3750    0.6413 C   0  0  0  0  0  0  0  0  0  0  0  0
   -4.3282    0.9306   -0.0395 C   0  0  0  0  0  0  0  0  0  0  0  0
   -3.2264    1.1390   -2.9543 C   0  0  0  0  0  0  0  0  0  0  0  0
   -2.3471    1.5764   -3.9562 C   0  0  0  0  0  0  0  0  0  0  0  0
   -0.9983    1.1476   -3.9459 C   0  0  0  0  0  0  0  0  0  0  0  0
   -0.0119    1.7882   -4.9152 C   0  0  0  0  0  0  0  0  0  0  0  0
   -0.5095    3.0943   -5.5329 C   0  0  0  0  0  0  0  0  0  0  0  0
   -1.9088    2.8950   -6.0904 C   0  0  0  0  0  0  0  0  0  0  0  0
   -2.8765    2.5789   -4.9570 C   0  0  0  0  0  0  0  0  0  0  0  0
   -0.5424    0.2020   -2.9733 C   0  0  0  0  0  0  0  0  0  0  0  0
    0.7795   -0.3658   -2.9770 C   0  0  0  0  0  0  0  0  0  0  0  0
    1.6533   -0.1653   -1.8824 C   0  0  0  0  0  0  0  0  0  0  0  0
    1.1942    0.4452   -0.7320 O   0  0  0  0  0  0  0  0  0  0  0  0
    3.0293   -0.4817   -1.9292 C   0  0  0  0  0  0  0  0  0  0  0  0
    3.9215   -0.1590   -0.8080 C   0  0  0  0  0  0  0  0  0  0  0  0
    3.7595   -0.8167    0.4138 C   0  0  0  0  0  0  0  0  0  0  0  0
    4.4039   -0.3802    1.5774 C   0  0  0  0  0  0  0  0  0  0  0  0
    3.9727   -0.9380    2.8670 C   0  0  0  0  0  0  0  0  0  0  0  0
    2.9052   -0.3214    3.5705 C   0  0  0  0  0  0  0  0  0  0  0  0
    2.3266    1.0048    3.1394 C   0  0  0  0  0  0  0  0  0  0  0  0
    2.3783   -0.9378    4.7131 C   0  0  0  0  0  0  0  0  0  0  0  0
    2.9077   -2.1389    5.1940 C   0  0  0  0  0  0  0  0  0  0  0  0
    2.3612   -2.7625    6.4439 C   0  0  0  0  0  0  0  0  0  0  0  0
    3.9935   -2.7175    4.5298 C   0  0  0  0  0  0  0  0  0  0  0  0
    4.5290   -2.1366    3.3684 C   0  0  0  0  0  0  0  0  0  0  0  0
    5.6642   -2.8319    2.6630 C   0  0  0  0  0  0  0  0  0  0  0  0
    5.3370    0.6564    1.4802 C   0  0  0  0  0  0  0  0  0  0  0  0
    5.5886    1.2833    0.2485 C   0  0  0  0  0  0  0  0  0  0  0  0
    6.5479    2.3976    0.1598 C   0  0  0  0  0  0  0  0  0  0  0  0
    7.9209    2.1474   -0.0791 C   0  0  0  0  0  0  0  0  0  0  0  0
    8.4475    0.7446   -0.2439 C   0  0  0  0  0  0  0  0  0  0  0  0
    8.8237    3.2213   -0.1578 C   0  0  0  0  0  0  0  0  0  0  0  0
    8.3904    4.5423   -0.0184 C   0  0  0  0  0  0  0  0  0  0  0  0
    9.3725    5.6748   -0.0737 C   0  0  0  0  0  0  0  0  0  0  0  0
    7.0380    4.7889    0.2305 C   0  0  0  0  0  0  0  0  0  0  0  0
    6.1113    3.7364    0.3177 C   0  0  0  0  0  0  0  0  0  0  0  0
    4.6633    4.0673    0.5794 C   0  0  0  0  0  0  0  0  0  0  0  0
    4.8638    0.8741   -0.8853 C   0  0  0  0  0  0  0  0  0  0  0  0
    3.5232   -1.1175   -3.0677 C   0  0  0  0  0  0  0  0  0  0  0  0
    2.6709   -1.4794   -4.1199 C   0  0  0  0  0  0  0  0  0  0  0  0
    1.2974   -1.1402   -4.0630 C   0  0  0  0  0  0  0  0  0  0  0  0
    0.3512   -1.6933   -5.1222 C   0  0  0  0  0  0  0  0  0  0  0  0
    0.9282   -2.8652   -5.9150 C   0  0  0  0  0  0  0  0  0  0  0  0
    2.3153   -2.5070   -6.4219 C   0  0  0  0  0  0  0  0  0  0  0  0
    3.2600   -2.3009   -5.2442 C   0  0  0  0  0  0  0  0  0  0  0  0
    0.9319   -1.2506    1.7859 H   0  0  0  0  0  0  0  0  0  0  0  0
   -3.4772   -2.1868   -1.0895 H   0  0  0  0  0  0  0  0  0  0  0  0
   -7.6898   -2.5111    0.5666 H   0  0  0  0  0  0  0  0  0  0  0  0
   -6.8588   -2.7726   -0.9969 H   0  0  0  0  0  0  0  0  0  0  0  0
   -7.9644   -3.9876   -0.3651 H   0  0  0  0  0  0  0  0  0  0  0  0
   -7.0745   -5.8082    0.7622 H   0  0  0  0  0  0  0  0  0  0  0  0
   -4.8773   -7.9783    1.1934 H   0  0  0  0  0  0  0  0  0  0  0  0
   -6.2935   -7.6440    2.2206 H   0  0  0  0  0  0  0  0  0  0  0  0
   -4.6776   -7.6109    2.9246 H   0  0  0  0  0  0  0  0  0  0  0  0
   -3.1474   -5.7181    2.4910 H   0  0  0  0  0  0  0  0  0  0  0  0
   -1.9588   -3.7412    2.7314 H   0  0  0  0  0  0  0  0  0  0  0  0
   -1.9412   -2.9886    1.1305 H   0  0  0  0  0  0  0  0  0  0  0  0
   -2.7498   -2.1883    2.5121 H   0  0  0  0  0  0  0  0  0  0  0  0
   -5.9319   -1.0226    2.2371 H   0  0  0  0  0  0  0  0  0  0  0  0
   -3.4280    0.8709    3.2878 H   0  0  0  0  0  0  0  0  0  0  0  0
   -3.1746    2.4325    4.0571 H   0  0  0  0  0  0  0  0  0  0  0  0
   -2.9291    2.2871    2.3126 H   0  0  0  0  0  0  0  0  0  0  0  0
   -5.0069    3.7973    4.4549 H   0  0  0  0  0  0  0  0  0  0  0  0
   -8.3352    5.2686    3.8093 H   0  0  0  0  0  0  0  0  0  0  0  0
   -7.9956    4.2597    5.2373 H   0  0  0  0  0  0  0  0  0  0  0  0
   -6.8128    5.4671    4.6757 H   0  0  0  0  0  0  0  0  0  0  0  0
   -8.7136    3.3085    2.3542 H   0  0  0  0  0  0  0  0  0  0  0  0
   -8.9286    1.8775    0.5446 H   0  0  0  0  0  0  0  0  0  0  0  0
   -7.4772    1.4217   -0.3400 H   0  0  0  0  0  0  0  0  0  0  0  0
   -8.1536    0.3313    0.9078 H   0  0  0  0  0  0  0  0  0  0  0  0
   -4.1459    1.9822   -0.2584 H   0  0  0  0  0  0  0  0  0  0  0  0
   -4.2582    1.4899   -2.9620 H   0  0  0  0  0  0  0  0  0  0  0  0
    0.2040    1.0985   -5.7326 H   0  0  0  0  0  0  0  0  0  0  0  0
    0.9308    2.0036   -4.3984 H   0  0  0  0  0  0  0  0  0  0  0  0
   -0.5153    3.8923   -4.7798 H   0  0  0  0  0  0  0  0  0  0  0  0
    0.1742    3.4075   -6.3299 H   0  0  0  0  0  0  0  0  0  0  0  0
   -1.9039    2.0750   -6.8197 H   0  0  0  0  0  0  0  0  0  0  0  0
   -2.2413    3.7941   -6.6210 H   0  0  0  0  0  0  0  0  0  0  0  0
   -3.1013    3.5071   -4.4156 H   0  0  0  0  0  0  0  0  0  0  0  0
   -3.8165    2.2109   -5.3856 H   0  0  0  0  0  0  0  0  0  0  0  0
    3.0551   -1.6438    0.4787 H   0  0  0  0  0  0  0  0  0  0  0  0
    2.0051    0.9760    2.0951 H   0  0  0  0  0  0  0  0  0  0  0  0
    1.4473    1.2709    3.7361 H   0  0  0  0  0  0  0  0  0  0  0  0
    3.0685    1.7987    3.2718 H   0  0  0  0  0  0  0  0  0  0  0  0
    1.5545   -0.4672    5.2461 H   0  0  0  0  0  0  0  0  0  0  0  0
    2.4748   -3.8514    6.4194 H   0  0  0  0  0  0  0  0  0  0  0  0
    2.8890   -2.3712    7.3189 H   0  0  0  0  0  0  0  0  0  0  0  0
    1.2921   -2.5509    6.5511 H   0  0  0  0  0  0  0  0  0  0  0  0
    4.4235   -3.6401    4.9172 H   0  0  0  0  0  0  0  0  0  0  0  0
    5.3195   -3.2546    1.7141 H   0  0  0  0  0  0  0  0  0  0  0  0
    6.4886   -2.1358    2.4774 H   0  0  0  0  0  0  0  0  0  0  0  0
    6.0680   -3.6514    3.2673 H   0  0  0  0  0  0  0  0  0  0  0  0
    5.8464    1.0075    2.3761 H   0  0  0  0  0  0  0  0  0  0  0  0
    7.9464    0.2415   -1.0770 H   0  0  0  0  0  0  0  0  0  0  0  0
    8.2997    0.1707    0.6763 H   0  0  0  0  0  0  0  0  0  0  0  0
    9.5207    0.7422   -0.4630 H   0  0  0  0  0  0  0  0  0  0  0  0
    9.8799    3.0238   -0.3318 H   0  0  0  0  0  0  0  0  0  0  0  0
    8.8989    6.5846   -0.4573 H   0  0  0  0  0  0  0  0  0  0  0  0
   10.2062    5.4370   -0.7428 H   0  0  0  0  0  0  0  0  0  0  0  0
    9.7678    5.8762    0.9267 H   0  0  0  0  0  0  0  0  0  0  0  0
    6.6986    5.8151    0.3586 H   0  0  0  0  0  0  0  0  0  0  0  0
    4.5149    5.1454    0.7043 H   0  0  0  0  0  0  0  0  0  0  0  0
    4.0395    3.7477   -0.2612 H   0  0  0  0  0  0  0  0  0  0  0  0
    4.3190    3.5848    1.4995 H   0  0  0  0  0  0  0  0  0  0  0  0
    5.0073    1.4025   -1.8267 H   0  0  0  0  0  0  0  0  0  0  0  0
    4.5780   -1.3858   -3.1136 H   0  0  0  0  0  0  0  0  0  0  0  0
    0.0884   -0.9092   -5.8338 H   0  0  0  0  0  0  0  0  0  0  0  0
   -0.5752   -2.0368   -4.6463 H   0  0  0  0  0  0  0  0  0  0  0  0
    0.9793   -3.7614   -5.2838 H   0  0  0  0  0  0  0  0  0  0  0  0
    0.2668   -3.1005   -6.7564 H   0  0  0  0  0  0  0  0  0  0  0  0
    2.2640   -1.5927   -7.0267 H   0  0  0  0  0  0  0  0  0  0  0  0
    2.7018   -3.3002   -7.0715 H   0  0  0  0  0  0  0  0  0  0  0  0
    3.5350   -3.2817   -4.8352 H   0  0  0  0  0  0  0  0  0  0  0  0
    4.1791   -1.8250   -5.6069 H   0  0  0  0  0  0  0  0  0  0  0  0
  2  3  1  0  0  0  0
  2  1  2  0  0  0  0
  3 74  1  0  0  0  0
  4  2  1  0  0  0  0
  5  6  1  0  0  0  0
  5  4  1  0  0  0  0
  6  7  1  0  0  0  0
  7  8  2  0  0  0  0
  7 30  1  0  0  0  0
  8  9  1  0  0  0  0
  9 10  1  0  0  0  0
  9 19  2  0  0  0  0
 10 17  1  0  0  0  0
 11 10  2  0  0  0  0
 11 13  1  0  0  0  0
 12 76  1  0  0  0  0
 12 11  1  0  0  0  0
 13 14  2  0  0  0  0
 14 16  1  0  0  0  0
 14 15  1  0  0  0  0
 15 81  1  0  0  0  0
 15 82  1  0  0  0  0
 16 83  1  0  0  0  0
 17 16  2  0  0  0  0
 17 18  1  0  0  0  0
 18 86  1  0  0  0  0
 18 84  1  0  0  0  0
 19 87  1  0  0  0  0
 20 19  1  0  0  0  0
 20 21  1  0  0  0  0
 21 22  1  0  0  0  0
 22 23  1  0  0  0  0
 22 24  2  0  0  0  0
 23 88  1  0  0  0  0
 23 89  1  0  0  0  0
 24 91  1  0  0  0  0
 25 24  1  0  0  0  0
 25 26  1  0  0  0  0
 26 94  1  0  0  0  0
 26 93  1  0  0  0  0
 27 25  2  0  0  0  0
 28 21  2  0  0  0  0
 28 27  1  0  0  0  0
 29 98  1  0  0  0  0
 29 28  1  0  0  0  0
 30 20  2  0  0  0  0
 31  6  2  0  0  0  0
 32 33  2  0  0  0  0
 32 31  1  0  0  0  0
 33 38  1  0  0  0  0
 34102  1  0  0  0  0
 34 33  1  0  0  0  0
 35 34  1  0  0  0  0
 35103  1  0  0  0  0
 36 35  1  0  0  0  0
 36 37  1  0  0  0  0
 37107  1  0  0  0  0
 37 32  1  0  0  0  0
 38  5  2  0  0  0  0
 39 38  1  0  0  0  0
 39 40  2  0  0  0  0
 40 41  1  0  0  0  0
 41  2  1  0  0  0  0
 42 40  1  0  0  0  0
 42 43  1  0  0  0  0
 43 44  1  0  0  0  0
 44109  1  0  0  0  0
 44 45  2  0  0  0  0
 45 46  1  0  0  0  0
 46 53  2  0  0  0  0
 46 47  1  0  0  0  0
 47 49  2  0  0  0  0
 48112  1  0  0  0  0
 48 47  1  0  0  0  0
 48111  1  0  0  0  0
 49 50  1  0  0  0  0
 49113  1  0  0  0  0
 50 51  1  0  0  0  0
 51116  1  0  0  0  0
 51115  1  0  0  0  0
 52117  1  0  0  0  0
 52 50  2  0  0  0  0
 53 52  1  0  0  0  0
 54120  1  0  0  0  0
 54 53  1  0  0  0  0
 55 45  1  0  0  0  0
 55121  1  0  0  0  0
 56 55  2  0  0  0  0
 57 56  1  0  0  0  0
 57 64  2  0  0  0  0
 58 57  1  0  0  0  0
 59 58  1  0  0  0  0
 59123  1  0  0  0  0
 60 58  2  0  0  0  0
 60 61  1  0  0  0  0
 61 63  2  0  0  0  0
 62 61  1  0  0  0  0
 62128  1  0  0  0  0
 63 64  1  0  0  0  0
 63129  1  0  0  0  0
 64 65  1  0  0  0  0
 65130  1  0  0  0  0
 65132  1  0  0  0  0
 66 43  2  0  0  0  0
 66 56  1  0  0  0  0
 67 42  2  0  0  0  0
 68 69  2  0  0  0  0
 68 67  1  0  0  0  0
 69 39  1  0  0  0  0
 70136  1  0  0  0  0
 70 69  1  0  0  0  0
 71137  1  0  0  0  0
 71 70  1  0  0  0  0
 72 71  1  0  0  0  0
 72 73  1  0  0  0  0
 73141  1  0  0  0  0
 73 68  1  0  0  0  0
 75  8  1  0  0  0  0
 77 12  1  0  0  0  0
 78 12  1  0  0  0  0
 79 13  1  0  0  0  0
 80 15  1  0  0  0  0
 85 18  1  0  0  0  0
 90 23  1  0  0  0  0
 92 26  1  0  0  0  0
 95 27  1  0  0  0  0
 96 29  1  0  0  0  0
 97 29  1  0  0  0  0
 99 30  1  0  0  0  0
100 31  1  0  0  0  0
101 34  1  0  0  0  0
104 35  1  0  0  0  0
105 36  1  0  0  0  0
106 36  1  0  0  0  0
108 37  1  0  0  0  0
110 48  1  0  0  0  0
114 51  1  0  0  0  0
118 54  1  0  0  0  0
119 54  1  0  0  0  0
122 59  1  0  0  0  0
124 59  1  0  0  0  0
125 60  1  0  0  0  0
126 62  1  0  0  0  0
127 62  1  0  0  0  0
131 65  1  0  0  0  0
133 66  1  0  0  0  0
134 67  1  0  0  0  0
135 70  1  0  0  0  0
138 71  1  0  0  0  0
139 72  1  0  0  0  0
140 72  1  0  0  0  0
142 73  1  0  0  0  0
M  END
$$$$
