O=P1(O)OC2=C(C3=C(C4=CC(C=CC=C5)=C5C=C4)C=CC=C3)C=C6C(CCCC6)=C2C7=C(O1)C(C8=CC=CC=C8C9=CC=C(C=CC=C%10)C%10=C9)=CC%11=C7CCCC%11
 OpenBabel09032010383D

 98108  0  0  0  0  0  0  0  0999 V2000
   -1.0907   -3.5961    2.1130 O   0  0  0  0  0  0  0  0  0  0  0  0
   -0.8178   -3.0451    0.7476 P   0  0  0  0  0  0  0  0  0  0  0  0
   -1.0719   -4.1177   -0.4281 O   0  0  0  0  0  0  0  0  0  0  0  0
    0.7053   -2.5934    0.5014 O   0  0  0  0  0  0  0  0  0  0  0  0
    1.0462   -1.8472   -0.6019 C   0  0  0  0  0  0  0  0  0  0  0  0
    1.9825   -2.4147   -1.4878 C   0  0  0  0  0  0  0  0  0  0  0  0
    2.6568   -3.7041   -1.2149 C   0  0  0  0  0  0  0  0  0  0  0  0
    3.5627   -3.8741   -0.1317 C   0  0  0  0  0  0  0  0  0  0  0  0
    3.8848   -2.7773    0.8001 C   0  0  0  0  0  0  0  0  0  0  0  0
    4.6112   -1.6543    0.3730 C   0  0  0  0  0  0  0  0  0  0  0  0
    4.8191   -0.5531    1.2193 C   0  0  0  0  0  0  0  0  0  0  0  0
    5.5068    0.5879    0.7776 C   0  0  0  0  0  0  0  0  0  0  0  0
    5.6673    1.6903    1.6175 C   0  0  0  0  0  0  0  0  0  0  0  0
    5.1506    1.6632    2.9095 C   0  0  0  0  0  0  0  0  0  0  0  0
    4.4788    0.5307    3.3690 C   0  0  0  0  0  0  0  0  0  0  0  0
    4.3046   -0.5840    2.5352 C   0  0  0  0  0  0  0  0  0  0  0  0
    3.6179   -1.7223    2.9771 C   0  0  0  0  0  0  0  0  0  0  0  0
    3.4136   -2.8057    2.1202 C   0  0  0  0  0  0  0  0  0  0  0  0
    4.1622   -5.1327    0.0652 C   0  0  0  0  0  0  0  0  0  0  0  0
    3.8859   -6.2048   -0.7830 C   0  0  0  0  0  0  0  0  0  0  0  0
    3.0038   -6.0392   -1.8443 C   0  0  0  0  0  0  0  0  0  0  0  0
    2.3973   -4.8013   -2.0594 C   0  0  0  0  0  0  0  0  0  0  0  0
    2.3016   -1.6984   -2.6445 C   0  0  0  0  0  0  0  0  0  0  0  0
    1.6926   -0.4702   -2.9316 C   0  0  0  0  0  0  0  0  0  0  0  0
    0.7948    0.1060   -2.0002 C   0  0  0  0  0  0  0  0  0  0  0  0
   -0.0151    1.3247   -2.4298 C   0  0  0  0  0  0  0  0  0  0  0  0
    0.6637    2.1623   -3.5095 C   0  0  0  0  0  0  0  0  0  0  0  0
    1.0740    1.2752   -4.6732 C   0  0  0  0  0  0  0  0  0  0  0  0
    2.0848    0.2335   -4.2108 C   0  0  0  0  0  0  0  0  0  0  0  0
    0.5079   -0.5502   -0.7629 C   0  0  0  0  0  0  0  0  0  0  0  0
   -0.2583    0.0519    0.2928 C   0  0  0  0  0  0  0  0  0  0  0  0
   -1.4350   -0.5706    0.7654 C   0  0  0  0  0  0  0  0  0  0  0  0
   -1.7575   -1.8174    0.2810 O   0  0  0  0  0  0  0  0  0  0  0  0
   -2.3198    0.0346    1.6736 C   0  0  0  0  0  0  0  0  0  0  0  0
   -3.6075   -0.5785    2.0496 C   0  0  0  0  0  0  0  0  0  0  0  0
   -3.6216   -1.6208    2.9951 C   0  0  0  0  0  0  0  0  0  0  0  0
   -4.8151   -2.2287    3.3852 C   0  0  0  0  0  0  0  0  0  0  0  0
   -6.0206   -1.7991    2.8444 C   0  0  0  0  0  0  0  0  0  0  0  0
   -6.0323   -0.7604    1.9138 C   0  0  0  0  0  0  0  0  0  0  0  0
   -4.8386   -0.1360    1.5012 C   0  0  0  0  0  0  0  0  0  0  0  0
   -4.9178    0.9595    0.5192 C   0  0  0  0  0  0  0  0  0  0  0  0
   -5.4038    2.2181    0.8977 C   0  0  0  0  0  0  0  0  0  0  0  0
   -5.4782    3.2639   -0.0254 C   0  0  0  0  0  0  0  0  0  0  0  0
   -5.0731    3.0749   -1.3541 C   0  0  0  0  0  0  0  0  0  0  0  0
   -5.1451    4.1156   -2.2939 C   0  0  0  0  0  0  0  0  0  0  0  0
   -4.7440    3.9123   -3.6149 C   0  0  0  0  0  0  0  0  0  0  0  0
   -4.2652    2.6676   -4.0121 C   0  0  0  0  0  0  0  0  0  0  0  0
   -4.1856    1.6236   -3.0887 C   0  0  0  0  0  0  0  0  0  0  0  0
   -4.5854    1.8109   -1.7553 C   0  0  0  0  0  0  0  0  0  0  0  0
   -4.5145    0.7700   -0.8126 C   0  0  0  0  0  0  0  0  0  0  0  0
   -1.9563    1.2718    2.2117 C   0  0  0  0  0  0  0  0  0  0  0  0
   -0.7463    1.8907    1.8707 C   0  0  0  0  0  0  0  0  0  0  0  0
    0.1162    1.2747    0.9350 C   0  0  0  0  0  0  0  0  0  0  0  0
    1.4799    1.8970    0.6601 C   0  0  0  0  0  0  0  0  0  0  0  0
    1.9347    2.8866    1.7306 C   0  0  0  0  0  0  0  0  0  0  0  0
    0.8256    3.8882    2.0064 C   0  0  0  0  0  0  0  0  0  0  0  0
   -0.3887    3.1730    2.5862 C   0  0  0  0  0  0  0  0  0  0  0  0
   -0.8949   -3.7306   -1.3025 H   0  0  0  0  0  0  0  0  0  0  0  0
    4.9876   -1.6259   -0.6477 H   0  0  0  0  0  0  0  0  0  0  0  0
    5.9194    0.6299   -0.2284 H   0  0  0  0  0  0  0  0  0  0  0  0
    6.1959    2.5704    1.2611 H   0  0  0  0  0  0  0  0  0  0  0  0
    5.2742    2.5225    3.5630 H   0  0  0  0  0  0  0  0  0  0  0  0
    4.0834    0.5269    4.3821 H   0  0  0  0  0  0  0  0  0  0  0  0
    3.2122   -1.7679    3.9850 H   0  0  0  0  0  0  0  0  0  0  0  0
    2.8357   -3.6576    2.4747 H   0  0  0  0  0  0  0  0  0  0  0  0
    4.8563   -5.2788    0.8913 H   0  0  0  0  0  0  0  0  0  0  0  0
    4.3584   -7.1683   -0.6105 H   0  0  0  0  0  0  0  0  0  0  0  0
    2.7825   -6.8742   -2.5035 H   0  0  0  0  0  0  0  0  0  0  0  0
    1.7057   -4.6963   -2.8927 H   0  0  0  0  0  0  0  0  0  0  0  0
    3.0339   -2.1078   -3.3398 H   0  0  0  0  0  0  0  0  0  0  0  0
   -0.9730    0.9525   -2.8168 H   0  0  0  0  0  0  0  0  0  0  0  0
   -0.2567    1.9867   -1.5971 H   0  0  0  0  0  0  0  0  0  0  0  0
   -0.0248    2.9404   -3.8576 H   0  0  0  0  0  0  0  0  0  0  0  0
    1.5446    2.6691   -3.0961 H   0  0  0  0  0  0  0  0  0  0  0  0
    0.1879    0.7777   -5.0875 H   0  0  0  0  0  0  0  0  0  0  0  0
    1.5078    1.8800   -5.4773 H   0  0  0  0  0  0  0  0  0  0  0  0
    3.0546    0.7189   -4.0421 H   0  0  0  0  0  0  0  0  0  0  0  0
    2.2210   -0.4999   -5.0149 H   0  0  0  0  0  0  0  0  0  0  0  0
   -2.6892   -1.9722    3.4343 H   0  0  0  0  0  0  0  0  0  0  0  0
   -4.7967   -3.0398    4.1083 H   0  0  0  0  0  0  0  0  0  0  0  0
   -6.9519   -2.2720    3.1440 H   0  0  0  0  0  0  0  0  0  0  0  0
   -6.9850   -0.4369    1.4977 H   0  0  0  0  0  0  0  0  0  0  0  0
   -5.7209    2.3924    1.9238 H   0  0  0  0  0  0  0  0  0  0  0  0
   -5.8564    4.2288    0.3039 H   0  0  0  0  0  0  0  0  0  0  0  0
   -5.5176    5.0946   -2.0018 H   0  0  0  0  0  0  0  0  0  0  0  0
   -4.8080    4.7260   -4.3326 H   0  0  0  0  0  0  0  0  0  0  0  0
   -3.9558    2.5077   -5.0416 H   0  0  0  0  0  0  0  0  0  0  0  0
   -3.8096    0.6580   -3.4187 H   0  0  0  0  0  0  0  0  0  0  0  0
   -4.1393   -0.2066   -1.1145 H   0  0  0  0  0  0  0  0  0  0  0  0
   -2.6200    1.7532    2.9295 H   0  0  0  0  0  0  0  0  0  0  0  0
    2.2391    1.1112    0.5869 H   0  0  0  0  0  0  0  0  0  0  0  0
    1.4501    2.4247   -0.2980 H   0  0  0  0  0  0  0  0  0  0  0  0
    2.1962    2.3532    2.6532 H   0  0  0  0  0  0  0  0  0  0  0  0
    2.8377    3.4060    1.3909 H   0  0  0  0  0  0  0  0  0  0  0  0
    0.5500    4.4006    1.0759 H   0  0  0  0  0  0  0  0  0  0  0  0
    1.1706    4.6575    2.7062 H   0  0  0  0  0  0  0  0  0  0  0  0
   -0.1876    2.9262    3.6367 H   0  0  0  0  0  0  0  0  0  0  0  0
   -1.2445    3.8586    2.5664 H   0  0  0  0  0  0  0  0  0  0  0  0
  2  1  2  0  0  0  0
  3  2  1  0  0  0  0
  4  2  1  0  0  0  0
  5  4  1  0  0  0  0
  6  7  1  0  0  0  0
  6  5  2  0  0  0  0
  7  8  2  0  0  0  0
  8 19  1  0  0  0  0
  8  9  1  0  0  0  0
  9 18  1  0  0  0  0
 10  9  2  0  0  0  0
 10 11  1  0  0  0  0
 11 16  1  0  0  0  0
 12 11  2  0  0  0  0
 12 13  1  0  0  0  0
 13 14  2  0  0  0  0
 14 15  1  0  0  0  0
 14 62  1  0  0  0  0
 15 63  1  0  0  0  0
 16 17  1  0  0  0  0
 16 15  2  0  0  0  0
 17 64  1  0  0  0  0
 18 65  1  0  0  0  0
 18 17  2  0  0  0  0
 19 66  1  0  0  0  0
 20 67  1  0  0  0  0
 20 19  2  0  0  0  0
 21 20  1  0  0  0  0
 22 21  2  0  0  0  0
 22  7  1  0  0  0  0
 23  6  1  0  0  0  0
 24 23  2  0  0  0  0
 24 25  1  0  0  0  0
 25 30  2  0  0  0  0
 26 25  1  0  0  0  0
 26 72  1  0  0  0  0
 27 74  1  0  0  0  0
 27 26  1  0  0  0  0
 28 29  1  0  0  0  0
 28 27  1  0  0  0  0
 29 77  1  0  0  0  0
 29 24  1  0  0  0  0
 30  5  1  0  0  0  0
 30 31  1  0  0  0  0
 31 32  2  0  0  0  0
 31 53  1  0  0  0  0
 32 34  1  0  0  0  0
 33  2  1  0  0  0  0
 33 32  1  0  0  0  0
 34 35  1  0  0  0  0
 34 51  2  0  0  0  0
 35 36  2  0  0  0  0
 36 37  1  0  0  0  0
 36 79  1  0  0  0  0
 37 80  1  0  0  0  0
 38 81  1  0  0  0  0
 38 37  2  0  0  0  0
 39 38  1  0  0  0  0
 40 39  2  0  0  0  0
 40 35  1  0  0  0  0
 41 42  1  0  0  0  0
 41 40  1  0  0  0  0
 42 83  1  0  0  0  0
 43 84  1  0  0  0  0
 43 42  2  0  0  0  0
 44 43  1  0  0  0  0
 45 85  1  0  0  0  0
 45 44  2  0  0  0  0
 46 45  1  0  0  0  0
 47 46  2  0  0  0  0
 47 48  1  0  0  0  0
 48 49  2  0  0  0  0
 49 44  1  0  0  0  0
 49 50  1  0  0  0  0
 50 41  2  0  0  0  0
 51 90  1  0  0  0  0
 52 51  1  0  0  0  0
 52 57  1  0  0  0  0
 53 52  2  0  0  0  0
 54 53  1  0  0  0  0
 54 55  1  0  0  0  0
 55 56  1  0  0  0  0
 55 93  1  0  0  0  0
 56 57  1  0  0  0  0
 56 96  1  0  0  0  0
 57 97  1  0  0  0  0
 58  3  1  0  0  0  0
 59 10  1  0  0  0  0
 60 12  1  0  0  0  0
 61 13  1  0  0  0  0
 68 21  1  0  0  0  0
 69 22  1  0  0  0  0
 70 23  1  0  0  0  0
 71 26  1  0  0  0  0
 73 27  1  0  0  0  0
 75 28  1  0  0  0  0
 76 28  1  0  0  0  0
 78 29  1  0  0  0  0
 82 39  1  0  0  0  0
 86 46  1  0  0  0  0
 87 47  1  0  0  0  0
 88 48  1  0  0  0  0
 89 50  1  0  0  0  0
 91 54  1  0  0  0  0
 92 54  1  0  0  0  0
 94 55  1  0  0  0  0
 95 56  1  0  0  0  0
 98 57  1  0  0  0  0
M  END
$$$$
