O=P1(O)OC2=C(C3=CC(C(F)(F)F)=CC(C(F)(F)F)=C3)C=C4C(CCCC4)=C2C5=C(O1)C(C6=CC(C(F)(F)F)=CC(C(F)(F)F)=C6)=CC7=C5CCCC7
 OpenBabel09032010383D

 78 84  0  0  0  0  0  0  0  0999 V2000
    0.4706   -3.3075   -0.1471 O   0  0  0  0  0  0  0  0  0  0  0  0
   -0.0741   -2.0585    0.4748 P   0  0  0  0  0  0  0  0  0  0  0  0
   -0.8369   -2.4187    1.8456 O   0  0  0  0  0  0  0  0  0  0  0  0
   -1.1796   -1.2881   -0.4076 O   0  0  0  0  0  0  0  0  0  0  0  0
   -1.5712   -0.0203   -0.0414 C   0  0  0  0  0  0  0  0  0  0  0  0
   -2.9292    0.1582    0.2830 C   0  0  0  0  0  0  0  0  0  0  0  0
   -3.9094   -0.9329    0.1991 C   0  0  0  0  0  0  0  0  0  0  0  0
   -4.7363   -1.0592   -0.9281 C   0  0  0  0  0  0  0  0  0  0  0  0
   -5.6912   -2.0846   -1.0234 C   0  0  0  0  0  0  0  0  0  0  0  0
   -6.5598   -2.2059   -2.2536 C   0  0  0  0  0  0  0  0  0  0  0  0
   -7.7652   -2.7872   -1.9973 F   0  0  0  0  0  0  0  0  0  0  0  0
   -6.8432   -1.0034   -2.8272 F   0  0  0  0  0  0  0  0  0  0  0  0
   -5.9788   -2.9597   -3.2257 F   0  0  0  0  0  0  0  0  0  0  0  0
   -5.7967   -3.0116    0.0260 C   0  0  0  0  0  0  0  0  0  0  0  0
   -4.9751   -2.9143    1.1606 C   0  0  0  0  0  0  0  0  0  0  0  0
   -5.0912   -3.9039    2.2950 C   0  0  0  0  0  0  0  0  0  0  0  0
   -5.6870   -5.0727    1.9282 F   0  0  0  0  0  0  0  0  0  0  0  0
   -3.8827   -4.2532    2.8189 F   0  0  0  0  0  0  0  0  0  0  0  0
   -5.8260   -3.4192    3.3330 F   0  0  0  0  0  0  0  0  0  0  0  0
   -4.0487   -1.8614    1.2400 C   0  0  0  0  0  0  0  0  0  0  0  0
   -3.3493    1.4296    0.6790 C   0  0  0  0  0  0  0  0  0  0  0  0
   -2.4476    2.4972    0.7727 C   0  0  0  0  0  0  0  0  0  0  0  0
   -1.0902    2.3031    0.4229 C   0  0  0  0  0  0  0  0  0  0  0  0
   -0.1031    3.4437    0.6385 C   0  0  0  0  0  0  0  0  0  0  0  0
   -0.6004    4.5245    1.5961 C   0  0  0  0  0  0  0  0  0  0  0  0
   -1.9944    4.9684    1.1871 C   0  0  0  0  0  0  0  0  0  0  0  0
   -2.9690    3.8055    1.3232 C   0  0  0  0  0  0  0  0  0  0  0  0
   -0.6338    1.0413   -0.0782 C   0  0  0  0  0  0  0  0  0  0  0  0
    0.6981    0.8352   -0.5877 C   0  0  0  0  0  0  0  0  0  0  0  0
    1.5460   -0.1532   -0.0263 C   0  0  0  0  0  0  0  0  0  0  0  0
    1.0318   -0.9837    0.9438 O   0  0  0  0  0  0  0  0  0  0  0  0
    2.9044   -0.3093   -0.3699 C   0  0  0  0  0  0  0  0  0  0  0  0
    3.7902   -1.2758    0.2968 C   0  0  0  0  0  0  0  0  0  0  0  0
    4.7520   -0.8370    1.2223 C   0  0  0  0  0  0  0  0  0  0  0  0
    5.6295   -1.7363    1.8510 C   0  0  0  0  0  0  0  0  0  0  0  0
    6.6515   -1.2440    2.8496 C   0  0  0  0  0  0  0  0  0  0  0  0
    6.1895   -1.2886    4.1288 F   0  0  0  0  0  0  0  0  0  0  0  0
    7.0369    0.0444    2.6329 F   0  0  0  0  0  0  0  0  0  0  0  0
    7.7987   -1.9795    2.8397 F   0  0  0  0  0  0  0  0  0  0  0  0
    5.5183   -3.1047    1.5581 C   0  0  0  0  0  0  0  0  0  0  0  0
    4.5726   -3.5710    0.6307 C   0  0  0  0  0  0  0  0  0  0  0  0
    4.4430   -5.0460    0.3300 C   0  0  0  0  0  0  0  0  0  0  0  0
    5.5857   -5.7419    0.5919 F   0  0  0  0  0  0  0  0  0  0  0  0
    4.1454   -5.3032   -0.9729 F   0  0  0  0  0  0  0  0  0  0  0  0
    3.4685   -5.6411    1.0704 F   0  0  0  0  0  0  0  0  0  0  0  0
    3.7192   -2.6459    0.0069 C   0  0  0  0  0  0  0  0  0  0  0  0
    3.4208    0.5042   -1.3816 C   0  0  0  0  0  0  0  0  0  0  0  0
    2.6094    1.4317   -2.0370 C   0  0  0  0  0  0  0  0  0  0  0  0
    1.2550    1.5901   -1.6606 C   0  0  0  0  0  0  0  0  0  0  0  0
    0.4045    2.4235   -2.6078 C   0  0  0  0  0  0  0  0  0  0  0  0
    1.0822    3.7096   -3.0958 C   0  0  0  0  0  0  0  0  0  0  0  0
    2.6094    3.6538   -3.1433 C   0  0  0  0  0  0  0  0  0  0  0  0
    3.1510    2.2307   -3.1971 C   0  0  0  0  0  0  0  0  0  0  0  0
   -0.5942   -3.3224    2.1225 H   0  0  0  0  0  0  0  0  0  0  0  0
   -4.6327   -0.3454   -1.7466 H   0  0  0  0  0  0  0  0  0  0  0  0
   -6.5261   -3.8207   -0.0435 H   0  0  0  0  0  0  0  0  0  0  0  0
   -3.4159   -1.7697    2.1242 H   0  0  0  0  0  0  0  0  0  0  0  0
   -4.3930    1.5862    0.9504 H   0  0  0  0  0  0  0  0  0  0  0  0
    0.8399    3.0531    1.0384 H   0  0  0  0  0  0  0  0  0  0  0  0
    0.1058    3.9181   -0.3230 H   0  0  0  0  0  0  0  0  0  0  0  0
    0.0882    5.3766    1.5776 H   0  0  0  0  0  0  0  0  0  0  0  0
   -0.6148    4.1424    2.6246 H   0  0  0  0  0  0  0  0  0  0  0  0
   -1.9798    5.3264    0.1498 H   0  0  0  0  0  0  0  0  0  0  0  0
   -2.3276    5.8054    1.8108 H   0  0  0  0  0  0  0  0  0  0  0  0
   -3.1964    3.6550    2.3865 H   0  0  0  0  0  0  0  0  0  0  0  0
   -3.9067    4.0710    0.8200 H   0  0  0  0  0  0  0  0  0  0  0  0
    4.8186    0.2267    1.4562 H   0  0  0  0  0  0  0  0  0  0  0  0
    6.1819   -3.8157    2.0538 H   0  0  0  0  0  0  0  0  0  0  0  0
    2.9885   -3.0046   -0.7201 H   0  0  0  0  0  0  0  0  0  0  0  0
    4.4607    0.3909   -1.6843 H   0  0  0  0  0  0  0  0  0  0  0  0
    0.1938    1.7863   -3.4783 H   0  0  0  0  0  0  0  0  0  0  0  0
   -0.5749    2.6787   -2.1960 H   0  0  0  0  0  0  0  0  0  0  0  0
    0.7884    4.5503   -2.4555 H   0  0  0  0  0  0  0  0  0  0  0  0
    0.6907    3.9508   -4.0921 H   0  0  0  0  0  0  0  0  0  0  0  0
    3.0034    4.1502   -2.2460 H   0  0  0  0  0  0  0  0  0  0  0  0
    2.9764    4.2318   -3.9992 H   0  0  0  0  0  0  0  0  0  0  0  0
    4.2461    2.2664   -3.1613 H   0  0  0  0  0  0  0  0  0  0  0  0
    2.8659    1.7411   -4.1358 H   0  0  0  0  0  0  0  0  0  0  0  0
  1  2  2  0  0  0  0
  2 31  1  0  0  0  0
  2  3  1  0  0  0  0
  3 54  1  0  0  0  0
  4  5  1  0  0  0  0
  4  2  1  0  0  0  0
  5  6  1  0  0  0  0
  6 21  2  0  0  0  0
  7  6  1  0  0  0  0
  7 20  2  0  0  0  0
  8  7  1  0  0  0  0
  9  8  2  0  0  0  0
  9 14  1  0  0  0  0
 10 11  1  0  0  0  0
 10  9  1  0  0  0  0
 12 10  1  0  0  0  0
 13 10  1  0  0  0  0
 14 15  2  0  0  0  0
 15 20  1  0  0  0  0
 15 16  1  0  0  0  0
 16 18  1  0  0  0  0
 16 19  1  0  0  0  0
 17 16  1  0  0  0  0
 20 57  1  0  0  0  0
 21 22  1  0  0  0  0
 21 58  1  0  0  0  0
 22 27  1  0  0  0  0
 23 24  1  0  0  0  0
 23 22  2  0  0  0  0
 24 59  1  0  0  0  0
 24 25  1  0  0  0  0
 25 62  1  0  0  0  0
 26 27  1  0  0  0  0
 26 25  1  0  0  0  0
 26 64  1  0  0  0  0
 27 65  1  0  0  0  0
 28  5  2  0  0  0  0
 28 23  1  0  0  0  0
 29 28  1  0  0  0  0
 29 30  2  0  0  0  0
 30 31  1  0  0  0  0
 32 30  1  0  0  0  0
 32 33  1  0  0  0  0
 33 34  1  0  0  0  0
 34 67  1  0  0  0  0
 34 35  2  0  0  0  0
 35 36  1  0  0  0  0
 36 37  1  0  0  0  0
 38 36  1  0  0  0  0
 39 36  1  0  0  0  0
 40 35  1  0  0  0  0
 40 68  1  0  0  0  0
 41 40  2  0  0  0  0
 42 43  1  0  0  0  0
 42 41  1  0  0  0  0
 42 45  1  0  0  0  0
 44 42  1  0  0  0  0
 46 33  2  0  0  0  0
 46 41  1  0  0  0  0
 47 32  2  0  0  0  0
 48 49  2  0  0  0  0
 48 47  1  0  0  0  0
 49 29  1  0  0  0  0
 50 72  1  0  0  0  0
 50 49  1  0  0  0  0
 51 50  1  0  0  0  0
 51 73  1  0  0  0  0
 52 51  1  0  0  0  0
 52 75  1  0  0  0  0
 53 77  1  0  0  0  0
 53 52  1  0  0  0  0
 53 48  1  0  0  0  0
 55  8  1  0  0  0  0
 56 14  1  0  0  0  0
 60 24  1  0  0  0  0
 61 25  1  0  0  0  0
 63 26  1  0  0  0  0
 66 27  1  0  0  0  0
 69 46  1  0  0  0  0
 70 47  1  0  0  0  0
 71 50  1  0  0  0  0
 74 51  1  0  0  0  0
 76 52  1  0  0  0  0
 78 53  1  0  0  0  0
M  END
$$$$
