O=P1(O)OC2=[C@]([C@]3=C(Cl)C=C(Cl)C=C3Cl)C=C4C(CCCC4)=[C@]2[C@]5=C(O1)C(C6=C(Cl)C=C(Cl)C=C6Cl)=CC7=C5CCCC7
 OpenBabel09032010373D

 66 72  0  0  0  0  0  0  0  0999 V2000
    0.4519   -3.7620   -0.7760 O   0  0  0  0  0  0  0  0  0  0  0  0
   -0.0775   -2.6640    0.0924 P   0  0  0  0  0  0  0  0  0  0  0  0
   -0.8071   -3.2968    1.3782 O   0  0  0  0  0  0  0  0  0  0  0  0
    1.0354   -1.7022    0.7473 O   0  0  0  0  0  0  0  0  0  0  0  0
    1.5243   -0.6824   -0.0372 C   0  0  0  0  0  0  0  0  0  0  0  0
    2.8739   -0.7589   -0.4256 C   0  0  0  0  0  0  0  0  0  0  0  0
    3.7350   -1.8841   -0.0142 C   0  0  0  0  0  0  0  0  0  0  0  0
    4.2916   -1.9473    1.2809 C   0  0  0  0  0  0  0  0  0  0  0  0
    4.0525   -0.6811    2.4408 Cl  0  0  0  0  0  0  0  0  0  0  0  0
    5.0754   -3.0329    1.6839 C   0  0  0  0  0  0  0  0  0  0  0  0
    5.3202   -4.0734    0.7959 C   0  0  0  0  0  0  0  0  0  0  0  0
    6.2807   -5.4106    1.2932 Cl  0  0  0  0  0  0  0  0  0  0  0  0
    4.7993   -4.0386   -0.4918 C   0  0  0  0  0  0  0  0  0  0  0  0
    4.0161   -2.9519   -0.8936 C   0  0  0  0  0  0  0  0  0  0  0  0
    3.4155   -2.9783   -2.5193 Cl  0  0  0  0  0  0  0  0  0  0  0  0
    3.3857    0.2657   -1.2240 C   0  0  0  0  0  0  0  0  0  0  0  0
    2.5632    1.3011   -1.6856 C   0  0  0  0  0  0  0  0  0  0  0  0
    1.2080    1.3633   -1.2764 C   0  0  0  0  0  0  0  0  0  0  0  0
    0.2809    2.3366   -1.9970 C   0  0  0  0  0  0  0  0  0  0  0  0
    0.9971    3.5591   -2.5634 C   0  0  0  0  0  0  0  0  0  0  0  0
    2.1727    3.1196   -3.4200 C   0  0  0  0  0  0  0  0  0  0  0  0
    3.1836    2.3542   -2.5758 C   0  0  0  0  0  0  0  0  0  0  0  0
    0.6742    0.3969   -0.3666 C   0  0  0  0  0  0  0  0  0  0  0  0
   -0.6385    0.4867    0.2148 C   0  0  0  0  0  0  0  0  0  0  0  0
   -1.5755   -0.5635    0.0630 C   0  0  0  0  0  0  0  0  0  0  0  0
   -1.2037   -1.7270   -0.5751 O   0  0  0  0  0  0  0  0  0  0  0  0
   -2.9172   -0.4693    0.4787 C   0  0  0  0  0  0  0  0  0  0  0  0
   -3.8850   -1.5575    0.2335 C   0  0  0  0  0  0  0  0  0  0  0  0
   -4.2741   -2.4442    1.2605 C   0  0  0  0  0  0  0  0  0  0  0  0
   -3.6844   -2.2853    2.8831 Cl  0  0  0  0  0  0  0  0  0  0  0  0
   -5.1647   -3.4949    1.0163 C   0  0  0  0  0  0  0  0  0  0  0  0
   -5.6870   -3.6744   -0.2587 C   0  0  0  0  0  0  0  0  0  0  0  0
   -6.7807   -4.9674   -0.5589 Cl  0  0  0  0  0  0  0  0  0  0  0  0
   -5.3384   -2.8121   -1.2905 C   0  0  0  0  0  0  0  0  0  0  0  0
   -4.4483   -1.7617   -1.0451 C   0  0  0  0  0  0  0  0  0  0  0  0
   -4.0922   -0.7126   -2.3795 Cl  0  0  0  0  0  0  0  0  0  0  0  0
   -3.3215    0.6943    1.1375 C   0  0  0  0  0  0  0  0  0  0  0  0
   -2.4134    1.7234    1.4180 C   0  0  0  0  0  0  0  0  0  0  0  0
   -1.0688    1.6098    0.9923 C   0  0  0  0  0  0  0  0  0  0  0  0
   -0.0619    2.6698    1.4279 C   0  0  0  0  0  0  0  0  0  0  0  0
   -0.5297    3.5248    2.6041 C   0  0  0  0  0  0  0  0  0  0  0  0
   -1.9293    4.0492    2.3323 C   0  0  0  0  0  0  0  0  0  0  0  0
   -2.9096    2.8862    2.2471 C   0  0  0  0  0  0  0  0  0  0  0  0
   -0.4520   -4.1862    1.5561 H   0  0  0  0  0  0  0  0  0  0  0  0
    5.4910   -3.0637    2.6881 H   0  0  0  0  0  0  0  0  0  0  0  0
    4.9961   -4.8548   -1.1828 H   0  0  0  0  0  0  0  0  0  0  0  0
    4.4314    0.2381   -1.5278 H   0  0  0  0  0  0  0  0  0  0  0  0
   -0.1867    1.7827   -2.8223 H   0  0  0  0  0  0  0  0  0  0  0  0
   -0.5356    2.6900   -1.3661 H   0  0  0  0  0  0  0  0  0  0  0  0
    0.2967    4.1489   -3.1654 H   0  0  0  0  0  0  0  0  0  0  0  0
    1.3476    4.2037   -1.7478 H   0  0  0  0  0  0  0  0  0  0  0  0
    1.8140    2.4843   -4.2397 H   0  0  0  0  0  0  0  0  0  0  0  0
    2.6562    3.9902   -3.8771 H   0  0  0  0  0  0  0  0  0  0  0  0
    3.9178    1.8927   -3.2474 H   0  0  0  0  0  0  0  0  0  0  0  0
    3.7260    3.0583   -1.9321 H   0  0  0  0  0  0  0  0  0  0  0  0
   -5.4466   -4.1702    1.8203 H   0  0  0  0  0  0  0  0  0  0  0  0
   -5.7558   -2.9537   -2.2845 H   0  0  0  0  0  0  0  0  0  0  0  0
   -4.3529    0.7883    1.4758 H   0  0  0  0  0  0  0  0  0  0  0  0
    0.1477    3.3397    0.5890 H   0  0  0  0  0  0  0  0  0  0  0  0
    0.8796    2.1902    1.7206 H   0  0  0  0  0  0  0  0  0  0  0  0
    0.1653    4.3592    2.7509 H   0  0  0  0  0  0  0  0  0  0  0  0
   -0.5239    2.9331    3.5282 H   0  0  0  0  0  0  0  0  0  0  0  0
   -2.2404    4.7377    3.1259 H   0  0  0  0  0  0  0  0  0  0  0  0
   -1.9367    4.6166    1.3930 H   0  0  0  0  0  0  0  0  0  0  0  0
   -3.8582    3.2539    1.8375 H   0  0  0  0  0  0  0  0  0  0  0  0
   -3.1095    2.5149    3.2606 H   0  0  0  0  0  0  0  0  0  0  0  0
  1  2  2  0  0  0  0
  2  4  1  0  0  0  0
  2  3  1  0  0  0  0
  3 44  1  0  0  0  0
  5  4  1  0  0  0  0
  6  5  1  0  0  0  0
  6  7  1  0  0  0  0
  7  8  2  0  0  0  0
  8 10  1  0  0  0  0
  8  9  1  0  0  0  0
 10 45  1  0  0  0  0
 11 12  1  0  0  0  0
 11 10  2  0  0  0  0
 13 11  1  0  0  0  0
 14 13  2  0  0  0  0
 14  7  1  0  0  0  0
 15 14  1  0  0  0  0
 16  6  2  0  0  0  0
 17 18  2  0  0  0  0
 17 16  1  0  0  0  0
 18 23  1  0  0  0  0
 19 49  1  0  0  0  0
 19 18  1  0  0  0  0
 20 19  1  0  0  0  0
 20 51  1  0  0  0  0
 21 22  1  0  0  0  0
 21 20  1  0  0  0  0
 22 55  1  0  0  0  0
 22 17  1  0  0  0  0
 23  5  2  0  0  0  0
 23 24  1  0  0  0  0
 24 39  1  0  0  0  0
 25 24  2  0  0  0  0
 25 27  1  0  0  0  0
 26 25  1  0  0  0  0
 26  2  1  0  0  0  0
 27 37  2  0  0  0  0
 28 27  1  0  0  0  0
 28 29  2  0  0  0  0
 29 30  1  0  0  0  0
 31 29  1  0  0  0  0
 31 56  1  0  0  0  0
 32 31  2  0  0  0  0
 33 32  1  0  0  0  0
 34 35  2  0  0  0  0
 34 32  1  0  0  0  0
 35 28  1  0  0  0  0
 36 35  1  0  0  0  0
 37 38  1  0  0  0  0
 37 58  1  0  0  0  0
 38 43  1  0  0  0  0
 39 38  2  0  0  0  0
 39 40  1  0  0  0  0
 40 60  1  0  0  0  0
 40 41  1  0  0  0  0
 41 61  1  0  0  0  0
 41 62  1  0  0  0  0
 42 41  1  0  0  0  0
 42 63  1  0  0  0  0
 43 42  1  0  0  0  0
 43 66  1  0  0  0  0
 46 13  1  0  0  0  0
 47 16  1  0  0  0  0
 48 19  1  0  0  0  0
 50 20  1  0  0  0  0
 52 21  1  0  0  0  0
 53 21  1  0  0  0  0
 54 22  1  0  0  0  0
 57 34  1  0  0  0  0
 59 40  1  0  0  0  0
 64 42  1  0  0  0  0
 65 43  1  0  0  0  0
M  END
$$$$
