O=P1(O)OC2=C(C3=CC=C(S(F)(F)(F)(F)F)C=C3)C=C4C(C=CC=C4)=C2C5=C(O1)C(C6=CC=C(S(F)(F)(F)(F)F)C=C6)=CC7=C5C=CC=C7
 OpenBabel09032010373D

 68 66  0  0  0  0  0  0  0  0999 V2000
   -0.5591   -2.9606   -0.6057 O   0  0  0  0  0  0  0  0  0  0  0  0
   -0.1369   -1.6146   -1.0792 P   0  0  0  0  0  0  0  0  0  0  0  0
    0.2989   -1.7001   -2.6919 O   0  0  0  0  0  0  0  0  0  0  0  0
   -1.3959   -0.4125   -0.9468 O   0  0  0  0  0  0  0  0  0  0  0  0
   -1.6156    0.2837    0.2353 C   0  0  0  0  0  0  0  0  0  0  0  0
   -2.8595    0.4182    0.7542 C   0  0  0  0  0  0  0  0  0  0  0  0
   -4.0072   -0.1418    0.0045 C   0  0  0  0  0  0  0  0  0  0  0  0
   -5.1042    0.6448   -0.2658 C   0  0  0  0  0  0  0  0  0  0  0  0
   -6.1703    0.0730   -0.9591 C   0  0  0  0  0  0  0  0  0  0  0  0
   -6.2153   -1.2303   -1.3996 C   0  0  0  0  0  0  0  0  0  0  0  0
   -7.8099   -2.0107   -2.3167 S   0  0  0  0  0  0  0  0  0  0  0  0
   -9.1735   -2.2385   -1.1984 F   0  0  0  0  0  0  0  0  0  0  0  0
   -7.1027   -3.5179   -4.1151 F   0  0  0  0  0  0  0  0  0  0  0  0
   -9.4562   -0.9411   -3.2009 F   0  0  0  0  0  0  0  0  0  0  0  0
   -8.1902   -4.1746   -2.1735 F   0  0  0  0  0  0  0  0  0  0  0  0
   -7.3415   -1.1658   -4.3396 F   0  0  0  0  0  0  0  0  0  0  0  0
   -5.1342   -1.9674   -1.1220 C   0  0  0  0  0  0  0  0  0  0  0  0
   -4.0350   -1.4391   -0.4268 C   0  0  0  0  0  0  0  0  0  0  0  0
   -3.0843    1.0767    1.9540 C   0  0  0  0  0  0  0  0  0  0  0  0
   -2.0389    1.6121    2.6652 C   0  0  0  0  0  0  0  0  0  0  0  0
   -0.7006    1.5176    2.1881 C   0  0  0  0  0  0  0  0  0  0  0  0
    0.3805    1.8613    2.9595 C   0  0  0  0  0  0  0  0  0  0  0  0
    0.1672    2.3464    4.2395 C   0  0  0  0  0  0  0  0  0  0  0  0
   -1.1253    2.4708    4.7199 C   0  0  0  0  0  0  0  0  0  0  0  0
   -2.1988    2.1069    3.9427 C   0  0  0  0  0  0  0  0  0  0  0  0
   -0.5807    0.8761    1.0027 C   0  0  0  0  0  0  0  0  0  0  0  0
    0.7849    1.1412    0.4606 C   0  0  0  0  0  0  0  0  0  0  0  0
    1.6822    0.1197    0.0754 C   0  0  0  0  0  0  0  0  0  0  0  0
    1.2850   -1.1980   -0.1521 O   0  0  0  0  0  0  0  0  0  0  0  0
    2.9727    0.4943   -0.0958 C   0  0  0  0  0  0  0  0  0  0  0  0
    3.9363   -0.5453   -0.4821 C   0  0  0  0  0  0  0  0  0  0  0  0
    3.9505   -1.7601    0.1544 C   0  0  0  0  0  0  0  0  0  0  0  0
    4.9008   -2.7031   -0.2729 C   0  0  0  0  0  0  0  0  0  0  0  0
    5.8158   -2.4998   -1.2779 C   0  0  0  0  0  0  0  0  0  0  0  0
    7.1947   -3.8611   -1.7762 S   0  0  0  0  0  0  0  0  0  0  0  0
    7.4846   -3.8999   -4.2167 F   0  0  0  0  0  0  0  0  0  0  0  0
    8.4473   -4.0153   -0.5423 F   0  0  0  0  0  0  0  0  0  0  0  0
    9.0862   -3.2119   -2.6859 F   0  0  0  0  0  0  0  0  0  0  0  0
    5.8167   -5.1165   -3.0421 F   0  0  0  0  0  0  0  0  0  0  0  0
    7.2039   -5.9494   -1.2549 F   0  0  0  0  0  0  0  0  0  0  0  0
    5.7668   -1.3025   -1.8723 C   0  0  0  0  0  0  0  0  0  0  0  0
    4.8390   -0.3195   -1.4890 C   0  0  0  0  0  0  0  0  0  0  0  0
    3.3753    1.8119    0.0877 C   0  0  0  0  0  0  0  0  0  0  0  0
    2.4481    2.7747    0.4443 C   0  0  0  0  0  0  0  0  0  0  0  0
    1.0767    2.4487    0.6424 C   0  0  0  0  0  0  0  0  0  0  0  0
    0.1134    3.4146    0.7959 C   0  0  0  0  0  0  0  0  0  0  0  0
    0.4840    4.7501    0.7891 C   0  0  0  0  0  0  0  0  0  0  0  0
    1.8176    5.0880    0.6216 C   0  0  0  0  0  0  0  0  0  0  0  0
    2.7727    4.1154    0.4514 C   0  0  0  0  0  0  0  0  0  0  0  0
   -0.0722   -2.4729   -3.1644 H   0  0  0  0  0  0  0  0  0  0  0  0
   -5.1959    1.6631    0.0191 H   0  0  0  0  0  0  0  0  0  0  0  0
   -7.0878    0.6238   -1.2241 H   0  0  0  0  0  0  0  0  0  0  0  0
   -5.1100   -2.9906   -1.4410 H   0  0  0  0  0  0  0  0  0  0  0  0
   -3.2418   -2.1364   -0.2623 H   0  0  0  0  0  0  0  0  0  0  0  0
   -4.0899    1.1565    2.3101 H   0  0  0  0  0  0  0  0  0  0  0  0
    1.4244    1.7039    2.7848 H   0  0  0  0  0  0  0  0  0  0  0  0
    0.9676    2.6431    4.8949 H   0  0  0  0  0  0  0  0  0  0  0  0
   -1.2946    2.8719    5.7269 H   0  0  0  0  0  0  0  0  0  0  0  0
   -3.2180    2.2020    4.3225 H   0  0  0  0  0  0  0  0  0  0  0  0
    3.3113   -2.0512    0.9402 H   0  0  0  0  0  0  0  0  0  0  0  0
    4.9894   -3.7020    0.1693 H   0  0  0  0  0  0  0  0  0  0  0  0
    6.4551   -1.0868   -2.6633 H   0  0  0  0  0  0  0  0  0  0  0  0
    4.9066    0.5967   -2.0476 H   0  0  0  0  0  0  0  0  0  0  0  0
    4.4020    2.0634   -0.0503 H   0  0  0  0  0  0  0  0  0  0  0  0
   -0.9529    3.3210    0.8005 H   0  0  0  0  0  0  0  0  0  0  0  0
   -0.2170    5.5514    0.9131 H   0  0  0  0  0  0  0  0  0  0  0  0
    2.1257    6.1281    0.6317 H   0  0  0  0  0  0  0  0  0  0  0  0
    3.8317    4.3660    0.3144 H   0  0  0  0  0  0  0  0  0  0  0  0
  2  4  1  0  0  0  0
  2  1  2  0  0  0  0
  2 29  1  0  0  0  0
  3  2  1  0  0  0  0
  4  5  1  0  0  0  0
  5  6  2  0  0  0  0
  5 26  1  0  0  0  0
  6 19  1  0  0  0  0
  7  6  1  0  0  0  0
  8  7  1  0  0  0  0
  8 51  1  0  0  0  0
  9  8  2  0  0  0  0
 10 17  2  0  0  0  0
 10  9  1  0  0  0  0
 11 10  1  0  0  0  0
 11 12  1  0  0  0  0
 17 18  1  0  0  0  0
 18 54  1  0  0  0  0
 18  7  2  0  0  0  0
 19 55  1  0  0  0  0
 19 20  2  0  0  0  0
 20 25  1  0  0  0  0
 21 20  1  0  0  0  0
 21 22  1  0  0  0  0
 22 23  2  0  0  0  0
 23 24  1  0  0  0  0
 23 57  1  0  0  0  0
 24 58  1  0  0  0  0
 25 59  1  0  0  0  0
 25 24  2  0  0  0  0
 26 21  2  0  0  0  0
 27 45  2  0  0  0  0
 27 26  1  0  0  0  0
 28 27  1  0  0  0  0
 29 28  1  0  0  0  0
 30 28  2  0  0  0  0
 30 43  1  0  0  0  0
 31 30  1  0  0  0  0
 31 32  2  0  0  0  0
 32 60  1  0  0  0  0
 33 32  1  0  0  0  0
 33 61  1  0  0  0  0
 34 33  2  0  0  0  0
 35 34  1  0  0  0  0
 35 37  1  0  0  0  0
 41 42  2  0  0  0  0
 41 34  1  0  0  0  0
 42 31  1  0  0  0  0
 43 44  2  0  0  0  0
 44 49  1  0  0  0  0
 44 45  1  0  0  0  0
 45 46  1  0  0  0  0
 46 65  1  0  0  0  0
 47 46  2  0  0  0  0
 47 66  1  0  0  0  0
 48 67  1  0  0  0  0
 48 47  1  0  0  0  0
 49 48  2  0  0  0  0
 50  3  1  0  0  0  0
 52  9  1  0  0  0  0
 53 17  1  0  0  0  0
 56 22  1  0  0  0  0
 62 41  1  0  0  0  0
 63 42  1  0  0  0  0
 64 43  1  0  0  0  0
 68 49  1  0  0  0  0
M  RAD  8  13   2  14   2  15   2  16   2  36   2  38   2  39   2  40   2
M  END
$$$$
