O=P1(O)OC2=C(CC3=CC(C(F)(F)F)=CC(C(F)(F)F)=C3)C=C4C(CCCC4)=C2C5=C(O1)C(CC6=CC(C(F)(F)F)=CC(C(F)(F)F)=C6)=CC7=C5CCCC7
 OpenBabel09032010373D

 84 89  0  0  0  0  0  0  0  0999 V2000
   -1.3561    2.7844    0.4515 O   0  0  0  0  0  0  0  0  0  0  0  0
   -0.6623    1.6306   -0.2259 P   0  0  0  0  0  0  0  0  0  0  0  0
   -0.9804    1.6122   -1.8108 O   0  0  0  0  0  0  0  0  0  0  0  0
    0.9459    1.6424   -0.1972 O   0  0  0  0  0  0  0  0  0  0  0  0
    1.7455    0.6310    0.2896 C   0  0  0  0  0  0  0  0  0  0  0  0
    2.8683    1.0634    1.0403 C   0  0  0  0  0  0  0  0  0  0  0  0
    3.1104    2.5192    1.4143 C   0  0  0  0  0  0  0  0  0  0  0  0
    2.1714    2.9607    2.5162 C   0  0  0  0  0  0  0  0  0  0  0  0
    2.3429    2.5542    3.8452 C   0  0  0  0  0  0  0  0  0  0  0  0
    1.3191    2.7394    4.7922 C   0  0  0  0  0  0  0  0  0  0  0  0
    1.4870    2.2304    6.2026 C   0  0  0  0  0  0  0  0  0  0  0  0
    1.1089    0.9288    6.3281 F   0  0  0  0  0  0  0  0  0  0  0  0
    0.7476    2.9248    7.1114 F   0  0  0  0  0  0  0  0  0  0  0  0
    2.7741    2.2924    6.6444 F   0  0  0  0  0  0  0  0  0  0  0  0
    0.0935    3.2884    4.3772 C   0  0  0  0  0  0  0  0  0  0  0  0
   -0.0814    3.6997    3.0522 C   0  0  0  0  0  0  0  0  0  0  0  0
   -1.4370    4.0204    2.4620 C   0  0  0  0  0  0  0  0  0  0  0  0
   -1.8211    3.0338    1.5844 F   0  0  0  0  0  0  0  0  0  0  0  0
   -1.4369    5.1636    1.7290 F   0  0  0  0  0  0  0  0  0  0  0  0
   -2.4302    4.1427    3.3836 F   0  0  0  0  0  0  0  0  0  0  0  0
    0.9959    3.6172    2.1622 C   0  0  0  0  0  0  0  0  0  0  0  0
    3.7609    0.1124    1.5371 C   0  0  0  0  0  0  0  0  0  0  0  0
    3.5287   -1.2507    1.3634 C   0  0  0  0  0  0  0  0  0  0  0  0
    2.4118   -1.6836    0.6060 C   0  0  0  0  0  0  0  0  0  0  0  0
    2.0647   -3.1741    0.6536 C   0  0  0  0  0  0  0  0  0  0  0  0
    3.2399   -4.0912    0.9830 C   0  0  0  0  0  0  0  0  0  0  0  0
    3.9534   -3.5995    2.2275 C   0  0  0  0  0  0  0  0  0  0  0  0
    4.5220   -2.2115    1.9769 C   0  0  0  0  0  0  0  0  0  0  0  0
    1.5194   -0.7441   -0.0208 C   0  0  0  0  0  0  0  0  0  0  0  0
    0.4409   -1.2057   -0.8653 C   0  0  0  0  0  0  0  0  0  0  0  0
   -0.8950   -0.8877   -0.5479 C   0  0  0  0  0  0  0  0  0  0  0  0
   -1.1312    0.1704    0.2957 O   0  0  0  0  0  0  0  0  0  0  0  0
   -2.0106   -1.5496   -1.1031 C   0  0  0  0  0  0  0  0  0  0  0  0
   -3.4369   -1.3008   -0.6421 C   0  0  0  0  0  0  0  0  0  0  0  0
   -4.0120    0.0027   -1.1515 C   0  0  0  0  0  0  0  0  0  0  0  0
   -3.9719    1.1326   -0.3305 C   0  0  0  0  0  0  0  0  0  0  0  0
   -4.2069    2.4138   -0.8495 C   0  0  0  0  0  0  0  0  0  0  0  0
   -3.7769    3.6013   -0.0050 C   0  0  0  0  0  0  0  0  0  0  0  0
   -3.8605    4.7874   -0.6661 F   0  0  0  0  0  0  0  0  0  0  0  0
   -4.5179    3.7361    1.1270 F   0  0  0  0  0  0  0  0  0  0  0  0
   -2.4714    3.4638    0.3851 F   0  0  0  0  0  0  0  0  0  0  0  0
   -4.6566    2.5414   -2.1727 C   0  0  0  0  0  0  0  0  0  0  0  0
   -4.7943    1.4051   -2.9929 C   0  0  0  0  0  0  0  0  0  0  0  0
   -5.1229    1.5534   -4.4658 C   0  0  0  0  0  0  0  0  0  0  0  0
   -5.7752    0.4829   -4.9897 F   0  0  0  0  0  0  0  0  0  0  0  0
   -5.8804    2.6459   -4.7430 F   0  0  0  0  0  0  0  0  0  0  0  0
   -3.9700    1.6935   -5.1777 F   0  0  0  0  0  0  0  0  0  0  0  0
   -4.4485    0.1432   -2.4756 C   0  0  0  0  0  0  0  0  0  0  0  0
   -1.7821   -2.4598   -2.1353 C   0  0  0  0  0  0  0  0  0  0  0  0
   -0.4912   -2.6747   -2.6312 C   0  0  0  0  0  0  0  0  0  0  0  0
    0.6187   -2.0585   -2.0026 C   0  0  0  0  0  0  0  0  0  0  0  0
    1.9912   -2.1763   -2.6577 C   0  0  0  0  0  0  0  0  0  0  0  0
    2.1412   -3.3890   -3.5723 C   0  0  0  0  0  0  0  0  0  0  0  0
    0.9800   -3.4544   -4.5492 C   0  0  0  0  0  0  0  0  0  0  0  0
   -0.3295   -3.6298   -3.7916 C   0  0  0  0  0  0  0  0  0  0  0  0
   -1.9248    1.5496   -2.0325 H   0  0  0  0  0  0  0  0  0  0  0  0
    3.0009    3.1508    0.5235 H   0  0  0  0  0  0  0  0  0  0  0  0
    4.1460    2.6706    1.7456 H   0  0  0  0  0  0  0  0  0  0  0  0
    3.2548    2.0332    4.1363 H   0  0  0  0  0  0  0  0  0  0  0  0
   -0.7416    3.3442    5.0766 H   0  0  0  0  0  0  0  0  0  0  0  0
    0.8502    3.9402    1.1304 H   0  0  0  0  0  0  0  0  0  0  0  0
    4.6265    0.4350    2.1141 H   0  0  0  0  0  0  0  0  0  0  0  0
    1.2889   -3.2989    1.4207 H   0  0  0  0  0  0  0  0  0  0  0  0
    1.6443   -3.5403   -0.2821 H   0  0  0  0  0  0  0  0  0  0  0  0
    3.9394   -4.1227    0.1381 H   0  0  0  0  0  0  0  0  0  0  0  0
    2.8756   -5.1130    1.1386 H   0  0  0  0  0  0  0  0  0  0  0  0
    3.2528   -3.5731    3.0716 H   0  0  0  0  0  0  0  0  0  0  0  0
    4.7611   -4.2878    2.5001 H   0  0  0  0  0  0  0  0  0  0  0  0
    4.8915   -1.8133    2.9299 H   0  0  0  0  0  0  0  0  0  0  0  0
    5.3815   -2.2846    1.2984 H   0  0  0  0  0  0  0  0  0  0  0  0
   -3.4667   -1.3314    0.4550 H   0  0  0  0  0  0  0  0  0  0  0  0
   -4.0901   -2.1233   -0.9622 H   0  0  0  0  0  0  0  0  0  0  0  0
   -3.6192    1.0411    0.6999 H   0  0  0  0  0  0  0  0  0  0  0  0
   -4.8462    3.5326   -2.5924 H   0  0  0  0  0  0  0  0  0  0  0  0
   -4.4708   -0.7284   -3.1312 H   0  0  0  0  0  0  0  0  0  0  0  0
   -2.6214   -2.9805   -2.5940 H   0  0  0  0  0  0  0  0  0  0  0  0
    2.7986   -2.2206   -1.9240 H   0  0  0  0  0  0  0  0  0  0  0  0
    2.1480   -1.2628   -3.2464 H   0  0  0  0  0  0  0  0  0  0  0  0
    2.1779   -4.3083   -2.9742 H   0  0  0  0  0  0  0  0  0  0  0  0
    3.0884   -3.3215   -4.1192 H   0  0  0  0  0  0  0  0  0  0  0  0
    0.9474   -2.5349   -5.1472 H   0  0  0  0  0  0  0  0  0  0  0  0
    1.1176   -4.2876   -5.2473 H   0  0  0  0  0  0  0  0  0  0  0  0
   -1.1590   -3.5034   -4.4980 H   0  0  0  0  0  0  0  0  0  0  0  0
   -0.3874   -4.6520   -3.3966 H   0  0  0  0  0  0  0  0  0  0  0  0
  1 18  1  0  0  0  0
  2  4  1  0  0  0  0
  2 32  1  0  0  0  0
  3  2  1  0  0  0  0
  4  5  1  0  0  0  0
  5  6  1  0  0  0  0
  6  7  1  0  0  0  0
  6 22  2  0  0  0  0
  7 58  1  0  0  0  0
  7  8  1  0  0  0  0
  8  9  1  0  0  0  0
  9 59  1  0  0  0  0
  9 10  2  0  0  0  0
 10 11  1  0  0  0  0
 11 12  1  0  0  0  0
 11 14  1  0  0  0  0
 11 13  1  0  0  0  0
 15 10  1  0  0  0  0
 15 60  1  0  0  0  0
 16 15  2  0  0  0  0
 17 16  1  0  0  0  0
 17 20  1  0  0  0  0
 19 17  1  0  0  0  0
 21  8  2  0  0  0  0
 21 16  1  0  0  0  0
 22 62  1  0  0  0  0
 23 22  1  0  0  0  0
 23 28  1  0  0  0  0
 24 25  1  0  0  0  0
 24 23  2  0  0  0  0
 25 26  1  0  0  0  0
 25 63  1  0  0  0  0
 26 66  1  0  0  0  0
 26 27  1  0  0  0  0
 27 68  1  0  0  0  0
 27 67  1  0  0  0  0
 28 27  1  0  0  0  0
 28 69  1  0  0  0  0
 29  5  2  0  0  0  0
 29 24  1  0  0  0  0
 30 31  1  0  0  0  0
 30 29  1  0  0  0  0
 31 32  1  0  0  0  0
 33 34  1  0  0  0  0
 33 31  2  0  0  0  0
 34 71  1  0  0  0  0
 35 34  1  0  0  0  0
 35 36  2  0  0  0  0
 36 73  1  0  0  0  0
 37 36  1  0  0  0  0
 37 38  1  0  0  0  0
 38 40  1  0  0  0  0
 39 38  1  0  0  0  0
 41  1  1  0  0  0  0
 42 37  2  0  0  0  0
 43 48  2  0  0  0  0
 43 42  1  0  0  0  0
 44 43  1  0  0  0  0
 45 44  1  0  0  0  0
 46 44  1  0  0  0  0
 47 44  1  0  0  0  0
 48 35  1  0  0  0  0
 49 33  1  0  0  0  0
 50 49  2  0  0  0  0
 50 51  1  0  0  0  0
 51 30  2  0  0  0  0
 52 51  1  0  0  0  0
 52 77  1  0  0  0  0
 53 79  1  0  0  0  0
 53 52  1  0  0  0  0
 54 55  1  0  0  0  0
 54 53  1  0  0  0  0
 55 84  1  0  0  0  0
 55 50  1  0  0  0  0
 56  3  1  0  0  0  0
 57  7  1  0  0  0  0
 61 21  1  0  0  0  0
 64 25  1  0  0  0  0
 65 26  1  0  0  0  0
 70 28  1  0  0  0  0
 72 34  1  0  0  0  0
 74 42  1  0  0  0  0
 75 48  1  0  0  0  0
 76 49  1  0  0  0  0
 78 52  1  0  0  0  0
 80 53  1  0  0  0  0
 81 54  1  0  0  0  0
 82 54  1  0  0  0  0
 83 55  1  0  0  0  0
M  RAD  2  17   2  38   2
M  END
$$$$
