O=P1(O)OC2=C([Si](C3=CC=C(C(C)(C)C)C=C3)(C4=CC=C(C(C)(C)C)C=C4)C5=CC=C(C(C)(C)C)C=C5)C=C6C(CCCC6)=C2C7=C(O1)C([Si](C8=CC=C(C(C)(C)C)C=C8)(C9=CC=C(C(C)(C)C)C=C9)C%10=CC=C(C(C)(C)C)C=C%10)=CC%11=C7CCCC%11
 OpenBabel09032010373D

184194  0  0  0  0  0  0  0  0999 V2000
    0.6320   -0.1679    2.1754 O   0  0  0  0  0  0  0  0  0  0  0  0
    0.0547    0.0363    0.8075 P   0  0  0  0  0  0  0  0  0  0  0  0
   -0.3280    1.5742    0.5522 O   0  0  0  0  0  0  0  0  0  0  0  0
   -1.3080   -0.7635    0.5109 O   0  0  0  0  0  0  0  0  0  0  0  0
   -1.6953   -1.1182   -0.7605 C   0  0  0  0  0  0  0  0  0  0  0  0
   -2.9739   -0.6879   -1.1923 C   0  0  0  0  0  0  0  0  0  0  0  0
   -4.1023    0.4530   -0.2099 Si  0  0  0  0  0  0  0  0  0  0  0  0
   -3.8911    0.2391    1.6255 C   0  0  0  0  0  0  0  0  0  0  0  0
   -3.7879    1.3305    2.5006 C   0  0  0  0  0  0  0  0  0  0  0  0
   -3.6239    1.1488    3.8811 C   0  0  0  0  0  0  0  0  0  0  0  0
   -3.5491   -0.1306    4.4561 C   0  0  0  0  0  0  0  0  0  0  0  0
   -3.3578   -0.2892    5.9737 C   0  0  0  0  0  0  0  0  0  0  0  0
   -4.5229    0.3960    6.7202 C   0  0  0  0  0  0  0  0  0  0  0  0
   -3.3155   -1.7598    6.4471 C   0  0  0  0  0  0  0  0  0  0  0  0
   -2.0263    0.3669    6.3981 C   0  0  0  0  0  0  0  0  0  0  0  0
   -3.6439   -1.2214    3.5834 C   0  0  0  0  0  0  0  0  0  0  0  0
   -3.8159   -1.0415    2.2033 C   0  0  0  0  0  0  0  0  0  0  0  0
   -3.7611    2.2243   -0.7216 C   0  0  0  0  0  0  0  0  0  0  0  0
   -4.6713    3.2522   -0.4203 C   0  0  0  0  0  0  0  0  0  0  0  0
   -4.4367    4.5744   -0.8180 C   0  0  0  0  0  0  0  0  0  0  0  0
   -3.2843    4.9362   -1.5355 C   0  0  0  0  0  0  0  0  0  0  0  0
   -3.0637    6.3966   -1.9610 C   0  0  0  0  0  0  0  0  0  0  0  0
   -1.7749    6.6215   -2.7834 C   0  0  0  0  0  0  0  0  0  0  0  0
   -2.9718    7.2907   -0.7062 C   0  0  0  0  0  0  0  0  0  0  0  0
   -4.2455    6.8704   -2.8358 C   0  0  0  0  0  0  0  0  0  0  0  0
   -2.3731    3.9132   -1.8273 C   0  0  0  0  0  0  0  0  0  0  0  0
   -2.6072    2.5873   -1.4327 C   0  0  0  0  0  0  0  0  0  0  0  0
   -5.8968    0.0976   -0.6706 C   0  0  0  0  0  0  0  0  0  0  0  0
   -6.7263   -0.7180    0.1151 C   0  0  0  0  0  0  0  0  0  0  0  0
   -8.0621   -0.9672   -0.2397 C   0  0  0  0  0  0  0  0  0  0  0  0
   -8.6305   -0.4145   -1.3953 C   0  0  0  0  0  0  0  0  0  0  0  0
  -10.0899   -0.6655   -1.8100 C   0  0  0  0  0  0  0  0  0  0  0  0
  -10.8650   -1.5876   -0.8417 C   0  0  0  0  0  0  0  0  0  0  0  0
  -10.8506    0.6767   -1.8696 C   0  0  0  0  0  0  0  0  0  0  0  0
  -10.1267   -1.3323   -3.2022 C   0  0  0  0  0  0  0  0  0  0  0  0
   -7.8016    0.4022   -2.1814 C   0  0  0  0  0  0  0  0  0  0  0  0
   -6.4693    0.6536   -1.8291 C   0  0  0  0  0  0  0  0  0  0  0  0
   -3.3785   -1.1098   -2.4686 C   0  0  0  0  0  0  0  0  0  0  0  0
   -2.5424   -1.8578   -3.3079 C   0  0  0  0  0  0  0  0  0  0  0  0
   -1.2711   -2.2725   -2.8520 C   0  0  0  0  0  0  0  0  0  0  0  0
   -0.2923   -2.8353   -3.8785 C   0  0  0  0  0  0  0  0  0  0  0  0
   -0.9663   -3.5023   -5.0742 C   0  0  0  0  0  0  0  0  0  0  0  0
   -1.9836   -2.5567   -5.6884 C   0  0  0  0  0  0  0  0  0  0  0  0
   -3.0721   -2.2290   -4.6755 C   0  0  0  0  0  0  0  0  0  0  0  0
   -0.8422   -1.9747   -1.5234 C   0  0  0  0  0  0  0  0  0  0  0  0
    0.4001   -2.4870   -0.9951 C   0  0  0  0  0  0  0  0  0  0  0  0
    1.4096   -1.5948   -0.5584 C   0  0  0  0  0  0  0  0  0  0  0  0
    1.0487   -0.2804   -0.4252 O   0  0  0  0  0  0  0  0  0  0  0  0
    2.7245   -1.9709   -0.2283 C   0  0  0  0  0  0  0  0  0  0  0  0
    4.1064   -0.7802    0.2060 Si  0  0  0  0  0  0  0  0  0  0  0  0
    3.5197    0.9773    0.4612 C   0  0  0  0  0  0  0  0  0  0  0  0
    3.2241    1.8024   -0.6391 C   0  0  0  0  0  0  0  0  0  0  0  0
    2.7661    3.1153   -0.4693 C   0  0  0  0  0  0  0  0  0  0  0  0
    2.5825    3.6726    0.8065 C   0  0  0  0  0  0  0  0  0  0  0  0
    2.0773    5.1171    0.9555 C   0  0  0  0  0  0  0  0  0  0  0  0
    0.6944    5.2570    0.2840 C   0  0  0  0  0  0  0  0  0  0  0  0
    1.9190    5.5746    2.4230 C   0  0  0  0  0  0  0  0  0  0  0  0
    3.0705    6.0857    0.2782 C   0  0  0  0  0  0  0  0  0  0  0  0
    2.8899    2.8566    1.9030 C   0  0  0  0  0  0  0  0  0  0  0  0
    3.3527    1.5418    1.7348 C   0  0  0  0  0  0  0  0  0  0  0  0
    4.9125   -1.4274    1.7631 C   0  0  0  0  0  0  0  0  0  0  0  0
    6.3004   -1.5937    1.8859 C   0  0  0  0  0  0  0  0  0  0  0  0
    6.8790   -2.0839    3.0667 C   0  0  0  0  0  0  0  0  0  0  0  0
    6.0974   -2.4334    4.1762 C   0  0  0  0  0  0  0  0  0  0  0  0
    6.7000   -2.9703    5.4849 C   0  0  0  0  0  0  0  0  0  0  0  0
    8.2413   -3.0823    5.4635 C   0  0  0  0  0  0  0  0  0  0  0  0
    6.1438   -4.3819    5.7718 C   0  0  0  0  0  0  0  0  0  0  0  0
    6.3273   -2.0308    6.6522 C   0  0  0  0  0  0  0  0  0  0  0  0
    4.7077   -2.2758    4.0503 C   0  0  0  0  0  0  0  0  0  0  0  0
    4.1277   -1.7878    2.8731 C   0  0  0  0  0  0  0  0  0  0  0  0
    5.3575   -0.7244   -1.1888 C   0  0  0  0  0  0  0  0  0  0  0  0
    5.3252   -1.6144   -2.2729 C   0  0  0  0  0  0  0  0  0  0  0  0
    6.2709   -1.5445   -3.3077 C   0  0  0  0  0  0  0  0  0  0  0  0
    7.2881   -0.5806   -3.3099 C   0  0  0  0  0  0  0  0  0  0  0  0
    8.3373   -0.4772   -4.4292 C   0  0  0  0  0  0  0  0  0  0  0  0
    8.2417    0.9085   -5.1036 C   0  0  0  0  0  0  0  0  0  0  0  0
    8.1721   -1.5386   -5.5403 C   0  0  0  0  0  0  0  0  0  0  0  0
    9.7509   -0.6561   -3.8343 C   0  0  0  0  0  0  0  0  0  0  0  0
    7.3158    0.3158   -2.2290 C   0  0  0  0  0  0  0  0  0  0  0  0
    6.3739    0.2484   -1.1949 C   0  0  0  0  0  0  0  0  0  0  0  0
    2.9867   -3.3523   -0.2233 C   0  0  0  0  0  0  0  0  0  0  0  0
    1.9974   -4.3028   -0.5240 C   0  0  0  0  0  0  0  0  0  0  0  0
    0.7004   -3.8782   -0.8854 C   0  0  0  0  0  0  0  0  0  0  0  0
   -0.3947   -4.9142   -1.1014 C   0  0  0  0  0  0  0  0  0  0  0  0
   -0.0741   -6.2846   -0.5076 C   0  0  0  0  0  0  0  0  0  0  0  0
    1.3171   -6.7197   -0.9370 C   0  0  0  0  0  0  0  0  0  0  0  0
    2.3584   -5.7628   -0.3691 C   0  0  0  0  0  0  0  0  0  0  0  0
    0.3429    2.1374    0.9812 H   0  0  0  0  0  0  0  0  0  0  0  0
   -3.8224    2.3547    2.1332 H   0  0  0  0  0  0  0  0  0  0  0  0
   -3.5446    2.0381    4.5024 H   0  0  0  0  0  0  0  0  0  0  0  0
   -4.5604    1.4742    6.5303 H   0  0  0  0  0  0  0  0  0  0  0  0
   -4.4287    0.2655    7.8046 H   0  0  0  0  0  0  0  0  0  0  0  0
   -5.4883   -0.0256    6.4160 H   0  0  0  0  0  0  0  0  0  0  0  0
   -2.4809   -2.3065    5.9928 H   0  0  0  0  0  0  0  0  0  0  0  0
   -3.1857   -1.8213    7.5343 H   0  0  0  0  0  0  0  0  0  0  0  0
   -4.2440   -2.2889    6.2026 H   0  0  0  0  0  0  0  0  0  0  0  0
   -1.1789   -0.0785    5.8633 H   0  0  0  0  0  0  0  0  0  0  0  0
   -1.8474    0.2392    7.4721 H   0  0  0  0  0  0  0  0  0  0  0  0
   -2.0126    1.4436    6.1966 H   0  0  0  0  0  0  0  0  0  0  0  0
   -3.5743   -2.2433    3.9442 H   0  0  0  0  0  0  0  0  0  0  0  0
   -3.8657   -1.9350    1.5800 H   0  0  0  0  0  0  0  0  0  0  0  0
   -5.5881    3.0404    0.1307 H   0  0  0  0  0  0  0  0  0  0  0  0
   -5.1808    5.3223   -0.5534 H   0  0  0  0  0  0  0  0  0  0  0  0
   -1.7777    6.0305   -3.7067 H   0  0  0  0  0  0  0  0  0  0  0  0
   -0.8787    6.3568   -2.2119 H   0  0  0  0  0  0  0  0  0  0  0  0
   -1.6700    7.6738   -3.0736 H   0  0  0  0  0  0  0  0  0  0  0  0
   -2.7797    8.3353   -0.9780 H   0  0  0  0  0  0  0  0  0  0  0  0
   -2.1603    6.9630   -0.0462 H   0  0  0  0  0  0  0  0  0  0  0  0
   -3.8972    7.2763   -0.1198 H   0  0  0  0  0  0  0  0  0  0  0  0
   -4.3625    6.2321   -3.7197 H   0  0  0  0  0  0  0  0  0  0  0  0
   -4.0919    7.8983   -3.1845 H   0  0  0  0  0  0  0  0  0  0  0  0
   -5.1965    6.8572   -2.2923 H   0  0  0  0  0  0  0  0  0  0  0  0
   -1.4509    4.1099   -2.3670 H   0  0  0  0  0  0  0  0  0  0  0  0
   -1.8506    1.8475   -1.6923 H   0  0  0  0  0  0  0  0  0  0  0  0
   -6.3603   -1.1772    1.0315 H   0  0  0  0  0  0  0  0  0  0  0  0
   -8.6408   -1.6052    0.4235 H   0  0  0  0  0  0  0  0  0  0  0  0
  -11.8973   -1.7376   -1.1803 H   0  0  0  0  0  0  0  0  0  0  0  0
  -10.9163   -1.1616    0.1671 H   0  0  0  0  0  0  0  0  0  0  0  0
  -10.4021   -2.5788   -0.7710 H   0  0  0  0  0  0  0  0  0  0  0  0
  -10.8181    1.1919   -0.9021 H   0  0  0  0  0  0  0  0  0  0  0  0
  -11.9043    0.5227   -2.1302 H   0  0  0  0  0  0  0  0  0  0  0  0
  -10.4319    1.3576   -2.6187 H   0  0  0  0  0  0  0  0  0  0  0  0
   -9.5677   -2.2756   -3.2026 H   0  0  0  0  0  0  0  0  0  0  0  0
   -9.6937   -0.6933   -3.9796 H   0  0  0  0  0  0  0  0  0  0  0  0
  -11.1561   -1.5544   -3.5071 H   0  0  0  0  0  0  0  0  0  0  0  0
   -8.1822    0.8651   -3.0894 H   0  0  0  0  0  0  0  0  0  0  0  0
   -5.8871    1.3012   -2.4856 H   0  0  0  0  0  0  0  0  0  0  0  0
   -4.3553   -0.8260   -2.8600 H   0  0  0  0  0  0  0  0  0  0  0  0
    0.3167   -1.9939   -4.2360 H   0  0  0  0  0  0  0  0  0  0  0  0
    0.4043   -3.5574   -3.4521 H   0  0  0  0  0  0  0  0  0  0  0  0
   -0.2095   -3.7717   -5.8195 H   0  0  0  0  0  0  0  0  0  0  0  0
   -1.4588   -4.4312   -4.7606 H   0  0  0  0  0  0  0  0  0  0  0  0
   -1.4830   -1.6348   -6.0104 H   0  0  0  0  0  0  0  0  0  0  0  0
   -2.4316   -3.0074   -6.5810 H   0  0  0  0  0  0  0  0  0  0  0  0
   -3.6829   -1.4113   -5.0773 H   0  0  0  0  0  0  0  0  0  0  0  0
   -3.7298   -3.0991   -4.5539 H   0  0  0  0  0  0  0  0  0  0  0  0
    3.3366    1.4315   -1.6590 H   0  0  0  0  0  0  0  0  0  0  0  0
    2.5593    3.6981   -1.3651 H   0  0  0  0  0  0  0  0  0  0  0  0
    0.7309    5.0349   -0.7877 H   0  0  0  0  0  0  0  0  0  0  0  0
   -0.0366    4.5767    0.7363 H   0  0  0  0  0  0  0  0  0  0  0  0
    0.3075    6.2773    0.3875 H   0  0  0  0  0  0  0  0  0  0  0  0
    1.2015    4.9479    2.9655 H   0  0  0  0  0  0  0  0  0  0  0  0
    2.8739    5.5445    2.9605 H   0  0  0  0  0  0  0  0  0  0  0  0
    1.5515    6.6065    2.4775 H   0  0  0  0  0  0  0  0  0  0  0  0
    2.7524    7.1277    0.4007 H   0  0  0  0  0  0  0  0  0  0  0  0
    3.1589    5.9024   -0.7983 H   0  0  0  0  0  0  0  0  0  0  0  0
    4.0730    5.9898    0.7118 H   0  0  0  0  0  0  0  0  0  0  0  0
    2.7867    3.2145    2.9244 H   0  0  0  0  0  0  0  0  0  0  0  0
    3.5703    0.9700    2.6365 H   0  0  0  0  0  0  0  0  0  0  0  0
    6.9723   -1.3516    1.0643 H   0  0  0  0  0  0  0  0  0  0  0  0
    7.9614   -2.1821    3.0836 H   0  0  0  0  0  0  0  0  0  0  0  0
    8.6227   -3.4674    6.4169 H   0  0  0  0  0  0  0  0  0  0  0  0
    8.5854   -3.7669    4.6795 H   0  0  0  0  0  0  0  0  0  0  0  0
    8.7144   -2.1074    5.2978 H   0  0  0  0  0  0  0  0  0  0  0  0
    6.5846   -4.8028    6.6831 H   0  0  0  0  0  0  0  0  0  0  0  0
    6.3655   -5.0684    4.9461 H   0  0  0  0  0  0  0  0  0  0  0  0
    5.0575   -4.3785    5.9138 H   0  0  0  0  0  0  0  0  0  0  0  0
    6.6819   -1.0101    6.4657 H   0  0  0  0  0  0  0  0  0  0  0  0
    5.2449   -1.9784    6.8130 H   0  0  0  0  0  0  0  0  0  0  0  0
    6.7744   -2.3725    7.5930 H   0  0  0  0  0  0  0  0  0  0  0  0
    4.0437   -2.5316    4.8736 H   0  0  0  0  0  0  0  0  0  0  0  0
    3.0409   -1.6909    2.8463 H   0  0  0  0  0  0  0  0  0  0  0  0
    4.5607   -2.3854   -2.3496 H   0  0  0  0  0  0  0  0  0  0  0  0
    6.1780   -2.2703   -4.1111 H   0  0  0  0  0  0  0  0  0  0  0  0
    8.4567    1.7249   -4.4054 H   0  0  0  0  0  0  0  0  0  0  0  0
    7.2386    1.0802   -5.5116 H   0  0  0  0  0  0  0  0  0  0  0  0
    8.9574    0.9964   -5.9294 H   0  0  0  0  0  0  0  0  0  0  0  0
    8.9429   -1.4258   -6.3122 H   0  0  0  0  0  0  0  0  0  0  0  0
    8.2613   -2.5563   -5.1426 H   0  0  0  0  0  0  0  0  0  0  0  0
    7.2007   -1.4513   -6.0408 H   0  0  0  0  0  0  0  0  0  0  0  0
   10.5168   -0.6217   -4.6180 H   0  0  0  0  0  0  0  0  0  0  0  0
    9.8432   -1.6199   -3.3198 H   0  0  0  0  0  0  0  0  0  0  0  0
    9.9985    0.1280   -3.1105 H   0  0  0  0  0  0  0  0  0  0  0  0
    8.0759    1.0922   -2.1735 H   0  0  0  0  0  0  0  0  0  0  0  0
    6.4494    0.9801   -0.3894 H   0  0  0  0  0  0  0  0  0  0  0  0
    3.9781   -3.7177    0.0558 H   0  0  0  0  0  0  0  0  0  0  0  0
   -1.3308   -4.5658   -0.6491 H   0  0  0  0  0  0  0  0  0  0  0  0
   -0.5681   -5.0425   -2.1741 H   0  0  0  0  0  0  0  0  0  0  0  0
   -0.8195   -7.0141   -0.8439 H   0  0  0  0  0  0  0  0  0  0  0  0
   -0.1322   -6.2450    0.5874 H   0  0  0  0  0  0  0  0  0  0  0  0
    1.3787   -6.7346   -2.0325 H   0  0  0  0  0  0  0  0  0  0  0  0
    1.5228   -7.7383   -0.5897 H   0  0  0  0  0  0  0  0  0  0  0  0
    3.3206   -5.9599   -0.8570 H   0  0  0  0  0  0  0  0  0  0  0  0
    2.4833   -5.9662    0.7023 H   0  0  0  0  0  0  0  0  0  0  0  0
  2  1  2  0  0  0  0
  3  2  1  0  0  0  0
  3 88  1  0  0  0  0
  4  2  1  0  0  0  0
  5  4  1  0  0  0  0
  6  5  1  0  0  0  0
  6  7  1  0  0  0  0
  7  8  1  0  0  0  0
  8 17  2  0  0  0  0
  8  9  1  0  0  0  0
  9 10  2  0  0  0  0
 10 11  1  0  0  0  0
 10 90  1  0  0  0  0
 11 12  1  0  0  0  0
 12 15  1  0  0  0  0
 12 14  1  0  0  0  0
 12 13  1  0  0  0  0
 13 92  1  0  0  0  0
 14 95  1  0  0  0  0
 15 98  1  0  0  0  0
 16100  1  0  0  0  0
 16 11  2  0  0  0  0
 17 16  1  0  0  0  0
 18 19  1  0  0  0  0
 18  7  1  0  0  0  0
 19102  1  0  0  0  0
 20103  1  0  0  0  0
 20 19  2  0  0  0  0
 21 20  1  0  0  0  0
 22 21  1  0  0  0  0
 22 24  1  0  0  0  0
 23105  1  0  0  0  0
 23 22  1  0  0  0  0
 24109  1  0  0  0  0
 24108  1  0  0  0  0
 25112  1  0  0  0  0
 25 22  1  0  0  0  0
 26 21  2  0  0  0  0
 26 27  1  0  0  0  0
 27 18  2  0  0  0  0
 28  7  1  0  0  0  0
 28 29  2  0  0  0  0
 29115  1  0  0  0  0
 30 29  1  0  0  0  0
 30116  1  0  0  0  0
 31 30  2  0  0  0  0
 32 31  1  0  0  0  0
 32 33  1  0  0  0  0
 33119  1  0  0  0  0
 33118  1  0  0  0  0
 34 32  1  0  0  0  0
 34120  1  0  0  0  0
 35 32  1  0  0  0  0
 36 37  2  0  0  0  0
 36 31  1  0  0  0  0
 37 28  1  0  0  0  0
 38  6  2  0  0  0  0
 39 40  2  0  0  0  0
 39 38  1  0  0  0  0
 40 45  1  0  0  0  0
 41130  1  0  0  0  0
 41 40  1  0  0  0  0
 42132  1  0  0  0  0
 42 41  1  0  0  0  0
 43 42  1  0  0  0  0
 43 44  1  0  0  0  0
 44136  1  0  0  0  0
 44 39  1  0  0  0  0
 45 46  1  0  0  0  0
 45  5  2  0  0  0  0
 46 83  2  0  0  0  0
 46 47  1  0  0  0  0
 47 48  1  0  0  0  0
 47 49  2  0  0  0  0
 48  2  1  0  0  0  0
 49 81  1  0  0  0  0
 49 50  1  0  0  0  0
 50 51  1  0  0  0  0
 50 61  1  0  0  0  0
 51 60  2  0  0  0  0
 52 53  2  0  0  0  0
 52 51  1  0  0  0  0
 53 54  1  0  0  0  0
 54 55  1  0  0  0  0
 54 59  2  0  0  0  0
 55 57  1  0  0  0  0
 56141  1  0  0  0  0
 56140  1  0  0  0  0
 56 55  1  0  0  0  0
 57144  1  0  0  0  0
 57143  1  0  0  0  0
 57142  1  0  0  0  0
 58145  1  0  0  0  0
 58147  1  0  0  0  0
 58 55  1  0  0  0  0
 59148  1  0  0  0  0
 60 59  1  0  0  0  0
 60149  1  0  0  0  0
 61 62  2  0  0  0  0
 61 70  1  0  0  0  0
 62 63  1  0  0  0  0
 63151  1  0  0  0  0
 63 64  2  0  0  0  0
 64 65  1  0  0  0  0
 65 67  1  0  0  0  0
 65 68  1  0  0  0  0
 66 65  1  0  0  0  0
 66152  1  0  0  0  0
 67157  1  0  0  0  0
 67155  1  0  0  0  0
 68159  1  0  0  0  0
 68160  1  0  0  0  0
 69 64  1  0  0  0  0
 69161  1  0  0  0  0
 70 69  2  0  0  0  0
 71 50  1  0  0  0  0
 72 71  2  0  0  0  0
 73 72  1  0  0  0  0
 74 73  2  0  0  0  0
 74 79  1  0  0  0  0
 75 78  1  0  0  0  0
 75 74  1  0  0  0  0
 76 75  1  0  0  0  0
 76165  1  0  0  0  0
 77169  1  0  0  0  0
 77 75  1  0  0  0  0
 78172  1  0  0  0  0
 78173  1  0  0  0  0
 79174  1  0  0  0  0
 79 80  2  0  0  0  0
 80 71  1  0  0  0  0
 80175  1  0  0  0  0
 81176  1  0  0  0  0
 82 87  1  0  0  0  0
 82 81  2  0  0  0  0
 83 82  1  0  0  0  0
 84 83  1  0  0  0  0
 84177  1  0  0  0  0
 84 85  1  0  0  0  0
 85180  1  0  0  0  0
 86182  1  0  0  0  0
 86 85  1  0  0  0  0
 86 87  1  0  0  0  0
 87184  1  0  0  0  0
 89  9  1  0  0  0  0
 91 13  1  0  0  0  0
 93 13  1  0  0  0  0
 94 14  1  0  0  0  0
 96 14  1  0  0  0  0
 97 15  1  0  0  0  0
 99 15  1  0  0  0  0
101 17  1  0  0  0  0
104 23  1  0  0  0  0
106 23  1  0  0  0  0
107 24  1  0  0  0  0
110 25  1  0  0  0  0
111 25  1  0  0  0  0
113 26  1  0  0  0  0
114 27  1  0  0  0  0
117 33  1  0  0  0  0
121 34  1  0  0  0  0
122 34  1  0  0  0  0
123 35  1  0  0  0  0
124 35  1  0  0  0  0
125 35  1  0  0  0  0
126 36  1  0  0  0  0
127 37  1  0  0  0  0
128 38  1  0  0  0  0
129 41  1  0  0  0  0
131 42  1  0  0  0  0
133 43  1  0  0  0  0
134 43  1  0  0  0  0
135 44  1  0  0  0  0
137 52  1  0  0  0  0
138 53  1  0  0  0  0
139 56  1  0  0  0  0
146 58  1  0  0  0  0
150 62  1  0  0  0  0
153 66  1  0  0  0  0
154 66  1  0  0  0  0
156 67  1  0  0  0  0
158 68  1  0  0  0  0
162 70  1  0  0  0  0
163 72  1  0  0  0  0
164 73  1  0  0  0  0
166 76  1  0  0  0  0
167 76  1  0  0  0  0
168 77  1  0  0  0  0
170 77  1  0  0  0  0
171 78  1  0  0  0  0
178 84  1  0  0  0  0
179 85  1  0  0  0  0
181 86  1  0  0  0  0
183 87  1  0  0  0  0
M  END
$$$$
