O=P1(O)OC2=C(C3=CC(C(C)(C)C)=CC(C(C)(C)C)=C3)C=C4C(C=CC=C4)=C2C5=C(O1)C(C6=CC(C(C)(C)C)=CC(C(C)(C)C)=C6)=CC7=C5C=CC=C7
 OpenBabel09032010383D

106112  0  0  0  0  0  0  0  0999 V2000
    0.6065    0.4085    1.7896 O   0  0  0  0  0  0  0  0  0  0  0  0
   -0.0209    0.2176    0.4444 P   0  0  0  0  0  0  0  0  0  0  0  0
   -0.8734    1.5067   -0.0046 O   0  0  0  0  0  0  0  0  0  0  0  0
   -1.0959   -0.9792    0.3688 O   0  0  0  0  0  0  0  0  0  0  0  0
   -1.6057   -1.3367   -0.8596 C   0  0  0  0  0  0  0  0  0  0  0  0
   -2.9653   -1.0524   -1.0806 C   0  0  0  0  0  0  0  0  0  0  0  0
   -3.7841   -0.3346   -0.0899 C   0  0  0  0  0  0  0  0  0  0  0  0
   -4.1268   -0.9327    1.1325 C   0  0  0  0  0  0  0  0  0  0  0  0
   -4.8785   -0.2527    2.1011 C   0  0  0  0  0  0  0  0  0  0  0  0
   -5.2595   -0.8860    3.4516 C   0  0  0  0  0  0  0  0  0  0  0  0
   -6.7968   -0.9314    3.5889 C   0  0  0  0  0  0  0  0  0  0  0  0
   -4.6699   -0.0436    4.6037 C   0  0  0  0  0  0  0  0  0  0  0  0
   -4.7428   -2.3313    3.6338 C   0  0  0  0  0  0  0  0  0  0  0  0
   -5.2832    1.0643    1.7973 C   0  0  0  0  0  0  0  0  0  0  0  0
   -4.9660    1.7066    0.5824 C   0  0  0  0  0  0  0  0  0  0  0  0
   -5.4386    3.1481    0.3230 C   0  0  0  0  0  0  0  0  0  0  0  0
   -4.8486    4.0872    1.3975 C   0  0  0  0  0  0  0  0  0  0  0  0
   -6.9802    3.2091    0.3839 C   0  0  0  0  0  0  0  0  0  0  0  0
   -5.0144    3.7081   -1.0538 C   0  0  0  0  0  0  0  0  0  0  0  0
   -4.2125    0.9784   -0.3480 C   0  0  0  0  0  0  0  0  0  0  0  0
   -3.5247   -1.4438   -2.2966 C   0  0  0  0  0  0  0  0  0  0  0  0
   -2.7542   -2.0597   -3.2863 C   0  0  0  0  0  0  0  0  0  0  0  0
   -1.3755   -2.3244   -3.0604 C   0  0  0  0  0  0  0  0  0  0  0  0
   -0.6528   -2.8477   -4.1630 C   0  0  0  0  0  0  0  0  0  0  0  0
   -1.2598   -3.1586   -5.3830 C   0  0  0  0  0  0  0  0  0  0  0  0
   -2.6164   -2.9373   -5.5537 C   0  0  0  0  0  0  0  0  0  0  0  0
   -3.3565   -2.3844   -4.5133 C   0  0  0  0  0  0  0  0  0  0  0  0
   -0.7727   -2.0071   -1.7876 C   0  0  0  0  0  0  0  0  0  0  0  0
    0.5992   -2.3235   -1.4377 C   0  0  0  0  0  0  0  0  0  0  0  0
    1.4695   -1.3008   -0.9790 C   0  0  0  0  0  0  0  0  0  0  0  0
    0.9754   -0.0265   -0.7982 O   0  0  0  0  0  0  0  0  0  0  0  0
    2.8469   -1.4851   -0.7696 C   0  0  0  0  0  0  0  0  0  0  0  0
    3.7380   -0.3855   -0.3739 C   0  0  0  0  0  0  0  0  0  0  0  0
    4.5363    0.2598   -1.3321 C   0  0  0  0  0  0  0  0  0  0  0  0
    5.3989    1.3098   -0.9870 C   0  0  0  0  0  0  0  0  0  0  0  0
    6.2804    2.0347   -2.0191 C   0  0  0  0  0  0  0  0  0  0  0  0
    5.9045    3.5317   -2.0618 C   0  0  0  0  0  0  0  0  0  0  0  0
    7.7665    1.8942   -1.6236 C   0  0  0  0  0  0  0  0  0  0  0  0
    6.1390    1.4877   -3.4579 C   0  0  0  0  0  0  0  0  0  0  0  0
    5.4308    1.6982    0.3689 C   0  0  0  0  0  0  0  0  0  0  0  0
    4.6475    1.0797    1.3657 C   0  0  0  0  0  0  0  0  0  0  0  0
    4.7217    1.5675    2.8235 C   0  0  0  0  0  0  0  0  0  0  0  0
    4.2978    3.0506    2.8944 C   0  0  0  0  0  0  0  0  0  0  0  0
    3.8076    0.7862    3.7948 C   0  0  0  0  0  0  0  0  0  0  0  0
    6.1677    1.4254    3.3462 C   0  0  0  0  0  0  0  0  0  0  0  0
    3.8106    0.0296    0.9639 C   0  0  0  0  0  0  0  0  0  0  0  0
    3.3755   -2.7619   -0.9646 C   0  0  0  0  0  0  0  0  0  0  0  0
    2.5627   -3.8391   -1.3268 C   0  0  0  0  0  0  0  0  0  0  0  0
    1.1730   -3.6424   -1.5472 C   0  0  0  0  0  0  0  0  0  0  0  0
    0.4117   -4.8074   -1.8207 C   0  0  0  0  0  0  0  0  0  0  0  0
    0.9903   -6.0744   -1.9367 C   0  0  0  0  0  0  0  0  0  0  0  0
    2.3564   -6.2267   -1.7638 C   0  0  0  0  0  0  0  0  0  0  0  0
    3.1355   -5.1160   -1.4536 C   0  0  0  0  0  0  0  0  0  0  0  0
   -1.4368    1.8090    0.7310 H   0  0  0  0  0  0  0  0  0  0  0  0
   -3.7821   -1.9491    1.3086 H   0  0  0  0  0  0  0  0  0  0  0  0
   -7.2440    0.0686    3.5851 H   0  0  0  0  0  0  0  0  0  0  0  0
   -7.2494   -1.4972    2.7659 H   0  0  0  0  0  0  0  0  0  0  0  0
   -7.0957   -1.4117    4.5279 H   0  0  0  0  0  0  0  0  0  0  0  0
   -3.5797    0.0347    4.5169 H   0  0  0  0  0  0  0  0  0  0  0  0
   -4.8956   -0.4933    5.5777 H   0  0  0  0  0  0  0  0  0  0  0  0
   -5.0721    0.9752    4.6213 H   0  0  0  0  0  0  0  0  0  0  0  0
   -5.1475   -3.0041    2.8688 H   0  0  0  0  0  0  0  0  0  0  0  0
   -5.0397   -2.7370    4.6085 H   0  0  0  0  0  0  0  0  0  0  0  0
   -3.6485   -2.3778    3.5862 H   0  0  0  0  0  0  0  0  0  0  0  0
   -5.8681    1.6100    2.5357 H   0  0  0  0  0  0  0  0  0  0  0  0
   -3.7530    4.0429    1.4010 H   0  0  0  0  0  0  0  0  0  0  0  0
   -5.1909    3.8309    2.4061 H   0  0  0  0  0  0  0  0  0  0  0  0
   -5.1400    5.1283    1.2156 H   0  0  0  0  0  0  0  0  0  0  0  0
   -7.4308    2.5273   -0.3472 H   0  0  0  0  0  0  0  0  0  0  0  0
   -7.3447    4.2199    0.1662 H   0  0  0  0  0  0  0  0  0  0  0  0
   -7.3682    2.9355    1.3711 H   0  0  0  0  0  0  0  0  0  0  0  0
   -5.4234    3.1097   -1.8762 H   0  0  0  0  0  0  0  0  0  0  0  0
   -5.3762    4.7342   -1.1914 H   0  0  0  0  0  0  0  0  0  0  0  0
   -3.9236    3.7352   -1.1599 H   0  0  0  0  0  0  0  0  0  0  0  0
   -3.9225    1.4230   -1.2978 H   0  0  0  0  0  0  0  0  0  0  0  0
   -4.5787   -1.2369   -2.4801 H   0  0  0  0  0  0  0  0  0  0  0  0
    0.4211   -3.0107   -4.0921 H   0  0  0  0  0  0  0  0  0  0  0  0
   -0.6639   -3.5651   -6.1958 H   0  0  0  0  0  0  0  0  0  0  0  0
   -3.0961   -3.1730   -6.4991 H   0  0  0  0  0  0  0  0  0  0  0  0
   -4.4153   -2.1916   -4.6767 H   0  0  0  0  0  0  0  0  0  0  0  0
    4.4563   -0.0791   -2.3619 H   0  0  0  0  0  0  0  0  0  0  0  0
    6.0823    4.0320   -1.1036 H   0  0  0  0  0  0  0  0  0  0  0  0
    6.4943    4.0659   -2.8160 H   0  0  0  0  0  0  0  0  0  0  0  0
    4.8450    3.6652   -2.3108 H   0  0  0  0  0  0  0  0  0  0  0  0
    8.0575    0.8394   -1.5528 H   0  0  0  0  0  0  0  0  0  0  0  0
    7.9853    2.3611   -0.6571 H   0  0  0  0  0  0  0  0  0  0  0  0
    8.4193    2.3713   -2.3640 H   0  0  0  0  0  0  0  0  0  0  0  0
    6.4202    0.4297   -3.5167 H   0  0  0  0  0  0  0  0  0  0  0  0
    6.7887    2.0327   -4.1533 H   0  0  0  0  0  0  0  0  0  0  0  0
    5.1129    1.5902   -3.8299 H   0  0  0  0  0  0  0  0  0  0  0  0
    6.0864    2.5168    0.6593 H   0  0  0  0  0  0  0  0  0  0  0  0
    3.2837    3.1898    2.5012 H   0  0  0  0  0  0  0  0  0  0  0  0
    4.9654    3.7013    2.3191 H   0  0  0  0  0  0  0  0  0  0  0  0
    4.3078    3.4156    3.9281 H   0  0  0  0  0  0  0  0  0  0  0  0
    2.7517    0.8718    3.5126 H   0  0  0  0  0  0  0  0  0  0  0  0
    3.8988    1.1700    4.8180 H   0  0  0  0  0  0  0  0  0  0  0  0
    4.0682   -0.2782    3.8261 H   0  0  0  0  0  0  0  0  0  0  0  0
    6.2405    1.7332    4.3959 H   0  0  0  0  0  0  0  0  0  0  0  0
    6.8758    2.0427    2.7827 H   0  0  0  0  0  0  0  0  0  0  0  0
    6.5109    0.3862    3.2785 H   0  0  0  0  0  0  0  0  0  0  0  0
    3.1830   -0.4857    1.6873 H   0  0  0  0  0  0  0  0  0  0  0  0
    4.4419   -2.9166   -0.8011 H   0  0  0  0  0  0  0  0  0  0  0  0
   -0.6688   -4.7451   -1.9375 H   0  0  0  0  0  0  0  0  0  0  0  0
    0.3659   -6.9364   -2.1559 H   0  0  0  0  0  0  0  0  0  0  0  0
    2.8148   -7.2079   -1.8515 H   0  0  0  0  0  0  0  0  0  0  0  0
    4.2032   -5.2593   -1.2962 H   0  0  0  0  0  0  0  0  0  0  0  0
  2  1  2  0  0  0  0
  3  2  1  0  0  0  0
  3 54  1  0  0  0  0
  4  2  1  0  0  0  0
  5  4  1  0  0  0  0
  6  5  1  0  0  0  0
  6  7  1  0  0  0  0
  7  8  1  0  0  0  0
  8 55  1  0  0  0  0
  8  9  2  0  0  0  0
  9 10  1  0  0  0  0
 10 11  1  0  0  0  0
 10 13  1  0  0  0  0
 10 12  1  0  0  0  0
 11 58  1  0  0  0  0
 12 61  1  0  0  0  0
 12 60  1  0  0  0  0
 13 63  1  0  0  0  0
 14  9  1  0  0  0  0
 14 65  1  0  0  0  0
 15 14  2  0  0  0  0
 16 18  1  0  0  0  0
 16 15  1  0  0  0  0
 16 17  1  0  0  0  0
 17 66  1  0  0  0  0
 17 67  1  0  0  0  0
 18 71  1  0  0  0  0
 19 16  1  0  0  0  0
 20  7  2  0  0  0  0
 20 15  1  0  0  0  0
 21  6  2  0  0  0  0
 22 23  1  0  0  0  0
 22 21  1  0  0  0  0
 23 28  1  0  0  0  0
 24 77  1  0  0  0  0
 24 23  2  0  0  0  0
 25 24  1  0  0  0  0
 26 25  2  0  0  0  0
 26 27  1  0  0  0  0
 27 22  2  0  0  0  0
 28 29  1  0  0  0  0
 28  5  2  0  0  0  0
 29 30  1  0  0  0  0
 30 31  1  0  0  0  0
 30 32  2  0  0  0  0
 31  2  1  0  0  0  0
 32 33  1  0  0  0  0
 33 46  2  0  0  0  0
 34 35  2  0  0  0  0
 34 33  1  0  0  0  0
 35 40  1  0  0  0  0
 36 38  1  0  0  0  0
 36 35  1  0  0  0  0
 37 36  1  0  0  0  0
 37 82  1  0  0  0  0
 38 85  1  0  0  0  0
 38 86  1  0  0  0  0
 39 36  1  0  0  0  0
 40 91  1  0  0  0  0
 40 41  2  0  0  0  0
 41 42  1  0  0  0  0
 42 43  1  0  0  0  0
 42 45  1  0  0  0  0
 42 44  1  0  0  0  0
 43 94  1  0  0  0  0
 44 97  1  0  0  0  0
 44 96  1  0  0  0  0
 45 98  1  0  0  0  0
 46 41  1  0  0  0  0
 46101  1  0  0  0  0
 47102  1  0  0  0  0
 47 32  1  0  0  0  0
 48 47  2  0  0  0  0
 49 29  2  0  0  0  0
 49 48  1  0  0  0  0
 50 49  1  0  0  0  0
 51 50  2  0  0  0  0
 51 52  1  0  0  0  0
 52 53  2  0  0  0  0
 53 48  1  0  0  0  0
 53106  1  0  0  0  0
 56 11  1  0  0  0  0
 57 11  1  0  0  0  0
 59 12  1  0  0  0  0
 62 13  1  0  0  0  0
 64 13  1  0  0  0  0
 68 17  1  0  0  0  0
 69 18  1  0  0  0  0
 70 18  1  0  0  0  0
 72 19  1  0  0  0  0
 73 19  1  0  0  0  0
 74 19  1  0  0  0  0
 75 20  1  0  0  0  0
 76 21  1  0  0  0  0
 78 25  1  0  0  0  0
 79 26  1  0  0  0  0
 80 27  1  0  0  0  0
 81 34  1  0  0  0  0
 83 37  1  0  0  0  0
 84 37  1  0  0  0  0
 87 38  1  0  0  0  0
 88 39  1  0  0  0  0
 89 39  1  0  0  0  0
 90 39  1  0  0  0  0
 92 43  1  0  0  0  0
 93 43  1  0  0  0  0
 95 44  1  0  0  0  0
 99 45  1  0  0  0  0
100 45  1  0  0  0  0
103 50  1  0  0  0  0
104 51  1  0  0  0  0
105 52  1  0  0  0  0
M  END
$$$$
