O=P1(O)OC2=C(CC3=CC(C(F)(F)F)=CC(C(F)(F)F)=C3)C=C4C(CCCC4)=C2C5=C(O1)C(CC6=CC(C(F)(F)F)=CC(C(F)(F)F)=C6)=CC7=C5CCCC7
 OpenBabel09032010373D

 84 89  0  0  0  0  0  0  0  0999 V2000
   -1.4503    2.4418    0.8608 O   0  0  0  0  0  0  0  0  0  0  0  0
   -0.8099    1.4391   -0.0620 P   0  0  0  0  0  0  0  0  0  0  0  0
   -1.3047    1.6675   -1.5878 O   0  0  0  0  0  0  0  0  0  0  0  0
    0.7915    1.5117   -0.2288 O   0  0  0  0  0  0  0  0  0  0  0  0
    1.6565    0.5426    0.2288 C   0  0  0  0  0  0  0  0  0  0  0  0
    2.8029    1.0006    0.9300 C   0  0  0  0  0  0  0  0  0  0  0  0
    3.0794    2.4697    1.2149 C   0  0  0  0  0  0  0  0  0  0  0  0
    2.2204    3.0005    2.3377 C   0  0  0  0  0  0  0  0  0  0  0  0
    2.4850    2.7091    3.6812 C   0  0  0  0  0  0  0  0  0  0  0  0
    1.5416    3.0073    4.6818 C   0  0  0  0  0  0  0  0  0  0  0  0
    1.8132    2.6305    6.1173 C   0  0  0  0  0  0  0  0  0  0  0  0
    1.4662    1.3420    6.3864 F   0  0  0  0  0  0  0  0  0  0  0  0
    1.1302    3.3982    7.0110 F   0  0  0  0  0  0  0  0  0  0  0  0
    3.1277    2.7436    6.4580 F   0  0  0  0  0  0  0  0  0  0  0  0
    0.2980    3.5465    4.3110 C   0  0  0  0  0  0  0  0  0  0  0  0
    0.0255    3.8282    2.9684 C   0  0  0  0  0  0  0  0  0  0  0  0
   -1.3689    4.1376    2.4616 C   0  0  0  0  0  0  0  0  0  0  0  0
   -1.5970    3.5396    1.2429 F   0  0  0  0  0  0  0  0  0  0  0  0
   -2.3473    3.6584    3.2745 F   0  0  0  0  0  0  0  0  0  0  0  0
   -1.5998    5.4684    2.3047 F   0  0  0  0  0  0  0  0  0  0  0  0
    1.0324    3.6489    2.0132 C   0  0  0  0  0  0  0  0  0  0  0  0
    3.7180    0.0640    1.4203 C   0  0  0  0  0  0  0  0  0  0  0  0
    3.4896   -1.2958    1.2519 C   0  0  0  0  0  0  0  0  0  0  0  0
    2.3673   -1.7443    0.5179 C   0  0  0  0  0  0  0  0  0  0  0  0
    2.1598   -3.2546    0.5249 C   0  0  0  0  0  0  0  0  0  0  0  0
    2.3476   -3.8129    1.9378 C   0  0  0  0  0  0  0  0  0  0  0  0
    3.6798   -3.4151    2.5823 C   0  0  0  0  0  0  0  0  0  0  0  0
    4.4342   -2.3169    1.8330 C   0  0  0  0  0  0  0  0  0  0  0  0
    1.4601   -0.8327   -0.0960 C   0  0  0  0  0  0  0  0  0  0  0  0
    0.4116   -1.3066   -0.9659 C   0  0  0  0  0  0  0  0  0  0  0  0
   -0.9388   -1.0543   -0.6542 C   0  0  0  0  0  0  0  0  0  0  0  0
   -1.2242   -0.0875    0.2744 O   0  0  0  0  0  0  0  0  0  0  0  0
   -2.0194   -1.7154   -1.2732 C   0  0  0  0  0  0  0  0  0  0  0  0
   -3.4637   -1.5458   -0.8255 C   0  0  0  0  0  0  0  0  0  0  0  0
   -4.0545   -0.2033   -1.1916 C   0  0  0  0  0  0  0  0  0  0  0  0
   -4.0727    0.8167   -0.2354 C   0  0  0  0  0  0  0  0  0  0  0  0
   -4.2981    2.1495   -0.6068 C   0  0  0  0  0  0  0  0  0  0  0  0
   -3.9125    3.2330    0.3826 C   0  0  0  0  0  0  0  0  0  0  0  0
   -3.9800    4.4897   -0.1390 F   0  0  0  0  0  0  0  0  0  0  0  0
   -4.7151    3.2378    1.4836 F   0  0  0  0  0  0  0  0  0  0  0  0
   -2.6300    3.0696    0.8344 F   0  0  0  0  0  0  0  0  0  0  0  0
   -4.6877    2.4338   -1.9241 C   0  0  0  0  0  0  0  0  0  0  0  0
   -4.7597    1.4075   -2.8845 C   0  0  0  0  0  0  0  0  0  0  0  0
   -4.9760    1.7522   -4.3418 C   0  0  0  0  0  0  0  0  0  0  0  0
   -5.9082    2.7204   -4.5418 F   0  0  0  0  0  0  0  0  0  0  0  0
   -5.3522    0.6907   -5.1036 F   0  0  0  0  0  0  0  0  0  0  0  0
   -3.8123    2.2144   -4.8821 F   0  0  0  0  0  0  0  0  0  0  0  0
   -4.4282    0.0936   -2.5088 C   0  0  0  0  0  0  0  0  0  0  0  0
   -1.7389   -2.5563   -2.3507 C   0  0  0  0  0  0  0  0  0  0  0  0
   -0.4279   -2.7254   -2.8127 C   0  0  0  0  0  0  0  0  0  0  0  0
    0.6441   -2.0926   -2.1397 C   0  0  0  0  0  0  0  0  0  0  0  0
    2.0505   -2.2139   -2.7103 C   0  0  0  0  0  0  0  0  0  0  0  0
    2.0851   -2.6245   -4.1809 C   0  0  0  0  0  0  0  0  0  0  0  0
    1.2268   -3.8619   -4.3839 C   0  0  0  0  0  0  0  0  0  0  0  0
   -0.2298   -3.5431   -4.0699 C   0  0  0  0  0  0  0  0  0  0  0  0
   -0.9453    1.0125   -2.2159 H   0  0  0  0  0  0  0  0  0  0  0  0
    2.9288    3.0514    0.2962 H   0  0  0  0  0  0  0  0  0  0  0  0
    4.1358    2.6217    1.4726 H   0  0  0  0  0  0  0  0  0  0  0  0
    3.4093    2.1988    3.9509 H   0  0  0  0  0  0  0  0  0  0  0  0
   -0.4811    3.6873    5.0611 H   0  0  0  0  0  0  0  0  0  0  0  0
    0.8125    3.8804    0.9702 H   0  0  0  0  0  0  0  0  0  0  0  0
    4.5953    0.3962    1.9723 H   0  0  0  0  0  0  0  0  0  0  0  0
    1.1569   -3.5339    0.1898 H   0  0  0  0  0  0  0  0  0  0  0  0
    2.8827   -3.7250   -0.1503 H   0  0  0  0  0  0  0  0  0  0  0  0
    2.2561   -4.9053    1.9218 H   0  0  0  0  0  0  0  0  0  0  0  0
    1.5304   -3.4479    2.5746 H   0  0  0  0  0  0  0  0  0  0  0  0
    4.3287   -4.2944    2.6748 H   0  0  0  0  0  0  0  0  0  0  0  0
    3.4788   -3.0823    3.6090 H   0  0  0  0  0  0  0  0  0  0  0  0
    5.1569   -1.8492    2.5119 H   0  0  0  0  0  0  0  0  0  0  0  0
    5.0137   -2.7542    1.0100 H   0  0  0  0  0  0  0  0  0  0  0  0
   -4.0927   -2.3348   -1.2587 H   0  0  0  0  0  0  0  0  0  0  0  0
   -3.5178   -1.7080    0.2591 H   0  0  0  0  0  0  0  0  0  0  0  0
   -3.7539    0.6067    0.7877 H   0  0  0  0  0  0  0  0  0  0  0  0
   -4.8557    3.4680   -2.2320 H   0  0  0  0  0  0  0  0  0  0  0  0
   -4.3943   -0.6883   -3.2674 H   0  0  0  0  0  0  0  0  0  0  0  0
   -2.5538   -3.0625   -2.8673 H   0  0  0  0  0  0  0  0  0  0  0  0
    2.6064   -2.9622   -2.1412 H   0  0  0  0  0  0  0  0  0  0  0  0
    2.5756   -1.2561   -2.6166 H   0  0  0  0  0  0  0  0  0  0  0  0
    1.7198   -1.8056   -4.8131 H   0  0  0  0  0  0  0  0  0  0  0  0
    3.1189   -2.8291   -4.4810 H   0  0  0  0  0  0  0  0  0  0  0  0
    1.5821   -4.6695   -3.7315 H   0  0  0  0  0  0  0  0  0  0  0  0
    1.3126   -4.2221   -5.4151 H   0  0  0  0  0  0  0  0  0  0  0  0
   -0.6569   -2.9764   -4.9074 H   0  0  0  0  0  0  0  0  0  0  0  0
   -0.7873   -4.4843   -3.9909 H   0  0  0  0  0  0  0  0  0  0  0  0
  1 18  1  0  0  0  0
  2 32  1  0  0  0  0
  3  2  1  0  0  0  0
  4  2  1  0  0  0  0
  4  5  1  0  0  0  0
  5  6  1  0  0  0  0
  6  7  1  0  0  0  0
  6 22  2  0  0  0  0
  7 58  1  0  0  0  0
  7  8  1  0  0  0  0
  8  9  1  0  0  0  0
  9 59  1  0  0  0  0
  9 10  2  0  0  0  0
 10 11  1  0  0  0  0
 11 12  1  0  0  0  0
 11 14  1  0  0  0  0
 11 13  1  0  0  0  0
 15 10  1  0  0  0  0
 15 60  1  0  0  0  0
 16 15  2  0  0  0  0
 17 16  1  0  0  0  0
 17 19  1  0  0  0  0
 20 17  1  0  0  0  0
 21  8  2  0  0  0  0
 21 16  1  0  0  0  0
 22 62  1  0  0  0  0
 23 22  1  0  0  0  0
 23 28  1  0  0  0  0
 24 25  1  0  0  0  0
 24 23  2  0  0  0  0
 25 26  1  0  0  0  0
 26 66  1  0  0  0  0
 26 27  1  0  0  0  0
 27 67  1  0  0  0  0
 27 68  1  0  0  0  0
 28 69  1  0  0  0  0
 28 27  1  0  0  0  0
 29  5  2  0  0  0  0
 29 24  1  0  0  0  0
 30 31  1  0  0  0  0
 30 29  1  0  0  0  0
 31 32  1  0  0  0  0
 33 34  1  0  0  0  0
 33 31  2  0  0  0  0
 34 72  1  0  0  0  0
 35 34  1  0  0  0  0
 35 36  2  0  0  0  0
 36 73  1  0  0  0  0
 37 36  1  0  0  0  0
 37 38  1  0  0  0  0
 38 40  1  0  0  0  0
 39 38  1  0  0  0  0
 41  1  1  0  0  0  0
 42 37  2  0  0  0  0
 43 48  2  0  0  0  0
 43 42  1  0  0  0  0
 44 43  1  0  0  0  0
 45 44  1  0  0  0  0
 46 44  1  0  0  0  0
 47 44  1  0  0  0  0
 48 35  1  0  0  0  0
 49 33  1  0  0  0  0
 50 49  2  0  0  0  0
 50 51  1  0  0  0  0
 51 30  2  0  0  0  0
 52 78  1  0  0  0  0
 52 77  1  0  0  0  0
 52 51  1  0  0  0  0
 53 52  1  0  0  0  0
 54 53  1  0  0  0  0
 54 55  1  0  0  0  0
 54 81  1  0  0  0  0
 55 84  1  0  0  0  0
 55 50  1  0  0  0  0
 56  3  1  0  0  0  0
 57  7  1  0  0  0  0
 61 21  1  0  0  0  0
 63 25  1  0  0  0  0
 64 25  1  0  0  0  0
 65 26  1  0  0  0  0
 70 28  1  0  0  0  0
 71 34  1  0  0  0  0
 74 42  1  0  0  0  0
 75 48  1  0  0  0  0
 76 49  1  0  0  0  0
 79 53  1  0  0  0  0
 80 53  1  0  0  0  0
 82 54  1  0  0  0  0
 83 55  1  0  0  0  0
M  RAD  2  17   2  38   2
M  END
$$$$
