O=P1(O)OC2=C(C3=CC(C)=C(OC(C)C)C(C)=C3)C=C4C(C=CC=C4)=C2C5=C(O1)C(C6=CC(C)=C(OC(C)C)C(C)=C6)=CC7=C5C=CC=C7
 OpenBabel09032010373D

 90 96  0  0  0  0  0  0  0  0999 V2000
    0.6121    0.8199    1.7525 O   0  0  0  0  0  0  0  0  0  0  0  0
   -0.0202    0.4709    0.4416 P   0  0  0  0  0  0  0  0  0  0  0  0
   -0.9576    1.6604   -0.1014 O   0  0  0  0  0  0  0  0  0  0  0  0
    0.9793    0.1824   -0.7890 O   0  0  0  0  0  0  0  0  0  0  0  0
    1.5738   -1.0602   -0.8375 C   0  0  0  0  0  0  0  0  0  0  0  0
    2.9603   -1.1119   -0.6170 C   0  0  0  0  0  0  0  0  0  0  0  0
    3.7610    0.0902   -0.3539 C   0  0  0  0  0  0  0  0  0  0  0  0
    4.4355    0.7398   -1.3974 C   0  0  0  0  0  0  0  0  0  0  0  0
    5.2127    1.8863   -1.1647 C   0  0  0  0  0  0  0  0  0  0  0  0
    5.8703    2.5679   -2.3302 C   0  0  0  0  0  0  0  0  0  0  0  0
    5.3530    2.3542    0.1531 C   0  0  0  0  0  0  0  0  0  0  0  0
    6.1210    3.4593    0.4266 O   0  0  0  0  0  0  0  0  0  0  0  0
    7.5316    3.1730    0.4235 C   0  0  0  0  0  0  0  0  0  0  0  0
    8.2365    4.3910   -0.1676 C   0  0  0  0  0  0  0  0  0  0  0  0
    8.0154    2.9352    1.8511 C   0  0  0  0  0  0  0  0  0  0  0  0
    4.6284    1.7662    1.2014 C   0  0  0  0  0  0  0  0  0  0  0  0
    4.6626    2.3005    2.6048 C   0  0  0  0  0  0  0  0  0  0  0  0
    3.8619    0.6194    0.9389 C   0  0  0  0  0  0  0  0  0  0  0  0
    3.5866   -2.3577   -0.6689 C   0  0  0  0  0  0  0  0  0  0  0  0
    2.8603   -3.5288   -0.9019 C   0  0  0  0  0  0  0  0  0  0  0  0
    1.4601   -3.4665   -1.1353 C   0  0  0  0  0  0  0  0  0  0  0  0
    0.7921   -4.7103   -1.2727 C   0  0  0  0  0  0  0  0  0  0  0  0
    1.4676   -5.9334   -1.2477 C   0  0  0  0  0  0  0  0  0  0  0  0
    2.8407   -5.9593   -1.0649 C   0  0  0  0  0  0  0  0  0  0  0  0
    3.5305   -4.7638   -0.8864 C   0  0  0  0  0  0  0  0  0  0  0  0
    0.7859   -2.1916   -1.1707 C   0  0  0  0  0  0  0  0  0  0  0  0
   -0.6053   -2.0204   -1.5432 C   0  0  0  0  0  0  0  0  0  0  0  0
   -1.4916   -1.3176   -0.6887 C   0  0  0  0  0  0  0  0  0  0  0  0
   -1.0153   -0.7941    0.4931 O   0  0  0  0  0  0  0  0  0  0  0  0
   -2.8687   -1.1644   -0.9333 C   0  0  0  0  0  0  0  0  0  0  0  0
   -3.7521   -0.4161   -0.0227 C   0  0  0  0  0  0  0  0  0  0  0  0
   -3.9840   -0.8520    1.2892 C   0  0  0  0  0  0  0  0  0  0  0  0
   -4.8068   -0.1286    2.1682 C   0  0  0  0  0  0  0  0  0  0  0  0
   -4.9890   -0.6397    3.5695 C   0  0  0  0  0  0  0  0  0  0  0  0
   -5.4544    1.0251    1.6995 C   0  0  0  0  0  0  0  0  0  0  0  0
   -6.2709    1.7133    2.5620 O   0  0  0  0  0  0  0  0  0  0  0  0
   -7.6690    1.5575    2.2550 C   0  0  0  0  0  0  0  0  0  0  0  0
   -8.3460    2.8932    2.5498 C   0  0  0  0  0  0  0  0  0  0  0  0
   -8.2734    0.4644    3.1316 C   0  0  0  0  0  0  0  0  0  0  0  0
   -5.1868    1.5230    0.4136 C   0  0  0  0  0  0  0  0  0  0  0  0
   -5.7621    2.8198   -0.0802 C   0  0  0  0  0  0  0  0  0  0  0  0
   -4.3581    0.7787   -0.4416 C   0  0  0  0  0  0  0  0  0  0  0  0
   -3.3877   -1.7277   -2.0997 C   0  0  0  0  0  0  0  0  0  0  0  0
   -2.5682   -2.3879   -3.0198 C   0  0  0  0  0  0  0  0  0  0  0  0
   -1.1752   -2.5207   -2.7715 C   0  0  0  0  0  0  0  0  0  0  0  0
   -0.4099   -3.1069   -3.8128 C   0  0  0  0  0  0  0  0  0  0  0  0
   -0.9860   -3.5963   -4.9882 C   0  0  0  0  0  0  0  0  0  0  0  0
   -2.3545   -3.4991   -5.1772 C   0  0  0  0  0  0  0  0  0  0  0  0
   -3.1385   -2.8913   -4.2015 C   0  0  0  0  0  0  0  0  0  0  0  0
   -1.4695    2.0456    0.6334 H   0  0  0  0  0  0  0  0  0  0  0  0
    4.3352    0.3548   -2.4114 H   0  0  0  0  0  0  0  0  0  0  0  0
    5.8280    3.6560   -2.2199 H   0  0  0  0  0  0  0  0  0  0  0  0
    6.9128    2.2493   -2.4204 H   0  0  0  0  0  0  0  0  0  0  0  0
    5.3572    2.3275   -3.2678 H   0  0  0  0  0  0  0  0  0  0  0  0
    7.7769    2.2955   -0.1879 H   0  0  0  0  0  0  0  0  0  0  0  0
    7.8902    4.5799   -1.1887 H   0  0  0  0  0  0  0  0  0  0  0  0
    8.0123    5.2938    0.4117 H   0  0  0  0  0  0  0  0  0  0  0  0
    9.3215    4.2502   -0.1914 H   0  0  0  0  0  0  0  0  0  0  0  0
    7.7034    3.7489    2.5147 H   0  0  0  0  0  0  0  0  0  0  0  0
    9.1054    2.8446    1.8913 H   0  0  0  0  0  0  0  0  0  0  0  0
    7.5886    2.0117    2.2533 H   0  0  0  0  0  0  0  0  0  0  0  0
    4.9115    3.3659    2.6291 H   0  0  0  0  0  0  0  0  0  0  0  0
    5.3964    1.7496    3.2003 H   0  0  0  0  0  0  0  0  0  0  0  0
    3.6800    2.1971    3.0783 H   0  0  0  0  0  0  0  0  0  0  0  0
    3.3189    0.1437    1.7554 H   0  0  0  0  0  0  0  0  0  0  0  0
    4.6613   -2.4105   -0.4962 H   0  0  0  0  0  0  0  0  0  0  0  0
   -0.2896   -4.7456   -1.3911 H   0  0  0  0  0  0  0  0  0  0  0  0
    0.9133   -6.8607   -1.3657 H   0  0  0  0  0  0  0  0  0  0  0  0
    3.3733   -6.9061   -1.0431 H   0  0  0  0  0  0  0  0  0  0  0  0
    4.6055   -4.8058   -0.7195 H   0  0  0  0  0  0  0  0  0  0  0  0
   -3.5052   -1.7664    1.6385 H   0  0  0  0  0  0  0  0  0  0  0  0
   -5.2619    0.1616    4.2629 H   0  0  0  0  0  0  0  0  0  0  0  0
   -5.7646   -1.4107    3.5918 H   0  0  0  0  0  0  0  0  0  0  0  0
   -4.0550   -1.0736    3.9435 H   0  0  0  0  0  0  0  0  0  0  0  0
   -7.8376    1.3039    1.2009 H   0  0  0  0  0  0  0  0  0  0  0  0
   -7.9140    3.6893    1.9350 H   0  0  0  0  0  0  0  0  0  0  0  0
   -8.1957    3.1874    3.5946 H   0  0  0  0  0  0  0  0  0  0  0  0
   -9.4210    2.8472    2.3496 H   0  0  0  0  0  0  0  0  0  0  0  0
   -9.3603    0.4151    3.0124 H   0  0  0  0  0  0  0  0  0  0  0  0
   -8.0407    0.6319    4.1888 H   0  0  0  0  0  0  0  0  0  0  0  0
   -7.8636   -0.5140    2.8640 H   0  0  0  0  0  0  0  0  0  0  0  0
   -5.1613    3.2308   -0.8990 H   0  0  0  0  0  0  0  0  0  0  0  0
   -6.7818    2.6706   -0.4467 H   0  0  0  0  0  0  0  0  0  0  0  0
   -5.7646    3.5725    0.7144 H   0  0  0  0  0  0  0  0  0  0  0  0
   -4.1570    1.1498   -1.4466 H   0  0  0  0  0  0  0  0  0  0  0  0
   -4.4536   -1.6266   -2.3020 H   0  0  0  0  0  0  0  0  0  0  0  0
    0.6730   -3.1800   -3.7291 H   0  0  0  0  0  0  0  0  0  0  0  0
   -0.3575   -4.0449   -5.7530 H   0  0  0  0  0  0  0  0  0  0  0  0
   -2.8100   -3.8756   -6.0889 H   0  0  0  0  0  0  0  0  0  0  0  0
   -4.2082   -2.7990   -4.3810 H   0  0  0  0  0  0  0  0  0  0  0  0
  2 29  1  0  0  0  0
  2  1  2  0  0  0  0
  3  2  1  0  0  0  0
  3 50  1  0  0  0  0
  4  2  1  0  0  0  0
  5  4  1  0  0  0  0
  5  6  2  0  0  0  0
  6  7  1  0  0  0  0
  7 18  2  0  0  0  0
  8  9  2  0  0  0  0
  8  7  1  0  0  0  0
  9 11  1  0  0  0  0
 10 52  1  0  0  0  0
 10  9  1  0  0  0  0
 11 12  1  0  0  0  0
 11 16  2  0  0  0  0
 13 12  1  0  0  0  0
 13 15  1  0  0  0  0
 14 57  1  0  0  0  0
 14 13  1  0  0  0  0
 15 60  1  0  0  0  0
 15 61  1  0  0  0  0
 15 59  1  0  0  0  0
 16 17  1  0  0  0  0
 17 62  1  0  0  0  0
 17 64  1  0  0  0  0
 17 63  1  0  0  0  0
 18 16  1  0  0  0  0
 18 65  1  0  0  0  0
 19  6  1  0  0  0  0
 19 66  1  0  0  0  0
 20 25  1  0  0  0  0
 20 19  2  0  0  0  0
 21 20  1  0  0  0  0
 22 23  2  0  0  0  0
 22 21  1  0  0  0  0
 23 24  1  0  0  0  0
 24 69  1  0  0  0  0
 24 25  2  0  0  0  0
 25 70  1  0  0  0  0
 26 21  2  0  0  0  0
 26  5  1  0  0  0  0
 27 26  1  0  0  0  0
 27 28  2  0  0  0  0
 28 29  1  0  0  0  0
 30 28  1  0  0  0  0
 30 31  1  0  0  0  0
 31 32  1  0  0  0  0
 32 71  1  0  0  0  0
 32 33  2  0  0  0  0
 33 34  1  0  0  0  0
 34 73  1  0  0  0  0
 34 74  1  0  0  0  0
 34 72  1  0  0  0  0
 35 33  1  0  0  0  0
 35 36  1  0  0  0  0
 37 38  1  0  0  0  0
 37 36  1  0  0  0  0
 37 39  1  0  0  0  0
 38 77  1  0  0  0  0
 39 80  1  0  0  0  0
 40 35  2  0  0  0  0
 41 40  1  0  0  0  0
 41 84  1  0  0  0  0
 42 31  2  0  0  0  0
 42 40  1  0  0  0  0
 43 30  2  0  0  0  0
 44 45  1  0  0  0  0
 44 43  1  0  0  0  0
 45 27  1  0  0  0  0
 46 87  1  0  0  0  0
 46 45  2  0  0  0  0
 47 46  1  0  0  0  0
 48 47  2  0  0  0  0
 48 49  1  0  0  0  0
 49 44  2  0  0  0  0
 51  8  1  0  0  0  0
 53 10  1  0  0  0  0
 54 10  1  0  0  0  0
 55 13  1  0  0  0  0
 56 14  1  0  0  0  0
 58 14  1  0  0  0  0
 67 22  1  0  0  0  0
 68 23  1  0  0  0  0
 75 37  1  0  0  0  0
 76 38  1  0  0  0  0
 78 38  1  0  0  0  0
 79 39  1  0  0  0  0
 81 39  1  0  0  0  0
 82 41  1  0  0  0  0
 83 41  1  0  0  0  0
 85 42  1  0  0  0  0
 86 43  1  0  0  0  0
 88 47  1  0  0  0  0
 89 48  1  0  0  0  0
 90 49  1  0  0  0  0
M  END
$$$$
