O=P1(O)OC2=C(C3=C(OCC)C=CC(C)=C3)C=C4C(C=CC=C4)=C2C5=C(O1)C(C6=CC(C)=CC=C6OCC)=CC7=C5C=CC=C7
 OpenBabel09032010383D

 78 84  0  0  0  0  0  0  0  0999 V2000
    0.4547    0.4185   -2.7213 O   0  0  0  0  0  0  0  0  0  0  0  0
   -0.1575   -0.4061   -1.6320 P   0  0  0  0  0  0  0  0  0  0  0  0
   -1.1480   -1.5179   -2.2449 O   0  0  0  0  0  0  0  0  0  0  0  0
    0.8502   -1.2677   -0.7186 O   0  0  0  0  0  0  0  0  0  0  0  0
    1.5019   -0.6021    0.2966 C   0  0  0  0  0  0  0  0  0  0  0  0
    2.8893   -0.4246    0.1597 C   0  0  0  0  0  0  0  0  0  0  0  0
    3.6459   -0.9397   -0.9975 C   0  0  0  0  0  0  0  0  0  0  0  0
    4.2629   -0.0850   -1.9285 C   0  0  0  0  0  0  0  0  0  0  0  0
    4.1604    1.2714   -1.7388 O   0  0  0  0  0  0  0  0  0  0  0  0
    3.6224    1.9450   -2.8817 C   0  0  0  0  0  0  0  0  0  0  0  0
    2.9153    3.1960   -2.3937 C   0  0  0  0  0  0  0  0  0  0  0  0
    5.0167   -0.6019   -2.9869 C   0  0  0  0  0  0  0  0  0  0  0  0
    5.1318   -1.9818   -3.1558 C   0  0  0  0  0  0  0  0  0  0  0  0
    4.4974   -2.8567   -2.2696 C   0  0  0  0  0  0  0  0  0  0  0  0
    4.6425   -4.3410   -2.4278 C   0  0  0  0  0  0  0  0  0  0  0  0
    3.7738   -2.3283   -1.1901 C   0  0  0  0  0  0  0  0  0  0  0  0
    3.5595    0.2577    1.1778 C   0  0  0  0  0  0  0  0  0  0  0  0
    2.8803    0.7759    2.2839 C   0  0  0  0  0  0  0  0  0  0  0  0
    1.4805    0.5798    2.4170 C   0  0  0  0  0  0  0  0  0  0  0  0
    0.8602    1.2172    3.5221 C   0  0  0  0  0  0  0  0  0  0  0  0
    1.5814    1.9461    4.4716 C   0  0  0  0  0  0  0  0  0  0  0  0
    2.9538    2.0808    4.3398 C   0  0  0  0  0  0  0  0  0  0  0  0
    3.5970    1.5047    3.2482 C   0  0  0  0  0  0  0  0  0  0  0  0
    0.7595   -0.1850    1.4309 C   0  0  0  0  0  0  0  0  0  0  0  0
   -0.6385   -0.5425    1.5569 C   0  0  0  0  0  0  0  0  0  0  0  0
   -1.5532   -0.2132    0.5272 C   0  0  0  0  0  0  0  0  0  0  0  0
   -1.0991    0.4105   -0.6142 O   0  0  0  0  0  0  0  0  0  0  0  0
   -2.9415   -0.4153    0.6215 C   0  0  0  0  0  0  0  0  0  0  0  0
   -3.8642   -0.0135   -0.4524 C   0  0  0  0  0  0  0  0  0  0  0  0
   -4.3559   -0.9795   -1.3492 C   0  0  0  0  0  0  0  0  0  0  0  0
   -5.2329   -0.6323   -2.3869 C   0  0  0  0  0  0  0  0  0  0  0  0
   -5.7192   -1.6760   -3.3486 C   0  0  0  0  0  0  0  0  0  0  0  0
   -5.6106    0.7057   -2.5394 C   0  0  0  0  0  0  0  0  0  0  0  0
   -5.1378    1.6782   -1.6572 C   0  0  0  0  0  0  0  0  0  0  0  0
   -4.2608    1.3227   -0.6297 C   0  0  0  0  0  0  0  0  0  0  0  0
   -3.8270    2.2634    0.2711 O   0  0  0  0  0  0  0  0  0  0  0  0
   -3.0529    3.2911   -0.3563 C   0  0  0  0  0  0  0  0  0  0  0  0
   -2.1561    3.9100    0.7005 C   0  0  0  0  0  0  0  0  0  0  0  0
   -3.4416   -1.0166    1.7765 C   0  0  0  0  0  0  0  0  0  0  0  0
   -2.5925   -1.4364    2.8036 C   0  0  0  0  0  0  0  0  0  0  0  0
   -1.1906   -1.2270    2.7013 C   0  0  0  0  0  0  0  0  0  0  0  0
   -0.4004   -1.7700    3.7467 C   0  0  0  0  0  0  0  0  0  0  0  0
   -0.9570   -2.4175    4.8534 C   0  0  0  0  0  0  0  0  0  0  0  0
   -2.3314   -2.5631    4.9479 C   0  0  0  0  0  0  0  0  0  0  0  0
   -3.1426   -2.0809    3.9250 C   0  0  0  0  0  0  0  0  0  0  0  0
   -1.6293   -1.1433   -3.0047 H   0  0  0  0  0  0  0  0  0  0  0  0
    4.4428    2.2261   -3.5513 H   0  0  0  0  0  0  0  0  0  0  0  0
    2.9103    1.3172   -3.4302 H   0  0  0  0  0  0  0  0  0  0  0  0
    2.4956    3.7590   -3.2320 H   0  0  0  0  0  0  0  0  0  0  0  0
    3.6085    3.8422   -1.8450 H   0  0  0  0  0  0  0  0  0  0  0  0
    2.1071    2.9357   -1.7020 H   0  0  0  0  0  0  0  0  0  0  0  0
    5.5285    0.0635   -3.6751 H   0  0  0  0  0  0  0  0  0  0  0  0
    5.7235   -2.3687   -3.9821 H   0  0  0  0  0  0  0  0  0  0  0  0
    4.7794   -4.6108   -3.4802 H   0  0  0  0  0  0  0  0  0  0  0  0
    3.7455   -4.8603   -2.0741 H   0  0  0  0  0  0  0  0  0  0  0  0
    5.5061   -4.6956   -1.8569 H   0  0  0  0  0  0  0  0  0  0  0  0
    3.3004   -3.0073   -0.4820 H   0  0  0  0  0  0  0  0  0  0  0  0
    4.6345    0.4101    1.0824 H   0  0  0  0  0  0  0  0  0  0  0  0
   -0.2193    1.1657    3.6539 H   0  0  0  0  0  0  0  0  0  0  0  0
    1.0620    2.4103    5.3057 H   0  0  0  0  0  0  0  0  0  0  0  0
    3.5228    2.6467    5.0720 H   0  0  0  0  0  0  0  0  0  0  0  0
    4.6720    1.6427    3.1463 H   0  0  0  0  0  0  0  0  0  0  0  0
   -4.0421   -2.0168   -1.2341 H   0  0  0  0  0  0  0  0  0  0  0  0
   -5.0109   -1.7803   -4.1762 H   0  0  0  0  0  0  0  0  0  0  0  0
   -6.7004   -1.4081   -3.7544 H   0  0  0  0  0  0  0  0  0  0  0  0
   -5.8279   -2.6449   -2.8500 H   0  0  0  0  0  0  0  0  0  0  0  0
   -6.2881    0.9986   -3.3385 H   0  0  0  0  0  0  0  0  0  0  0  0
   -5.4684    2.7067   -1.7658 H   0  0  0  0  0  0  0  0  0  0  0  0
   -2.4311    2.8906   -1.1670 H   0  0  0  0  0  0  0  0  0  0  0  0
   -3.7240    4.0570   -0.7605 H   0  0  0  0  0  0  0  0  0  0  0  0
   -2.7529    4.3142    1.5247 H   0  0  0  0  0  0  0  0  0  0  0  0
   -1.5501    4.7146    0.2750 H   0  0  0  0  0  0  0  0  0  0  0  0
   -1.4892    3.1550    1.1303 H   0  0  0  0  0  0  0  0  0  0  0  0
   -4.5166   -1.1695    1.8630 H   0  0  0  0  0  0  0  0  0  0  0  0
    0.6856   -1.7055    3.7077 H   0  0  0  0  0  0  0  0  0  0  0  0
   -0.3090   -2.8086    5.6332 H   0  0  0  0  0  0  0  0  0  0  0  0
   -2.7725   -3.0643    5.8050 H   0  0  0  0  0  0  0  0  0  0  0  0
   -4.2187   -2.2247    4.0050 H   0  0  0  0  0  0  0  0  0  0  0  0
  1  2  2  0  0  0  0
  2  4  1  0  0  0  0
  2 27  1  0  0  0  0
  3  2  1  0  0  0  0
  4  5  1  0  0  0  0
  5 24  1  0  0  0  0
  6  5  2  0  0  0  0
  6 17  1  0  0  0  0
  7  6  1  0  0  0  0
  8  9  1  0  0  0  0
  8  7  2  0  0  0  0
 10 11  1  0  0  0  0
 10  9  1  0  0  0  0
 11 50  1  0  0  0  0
 11 51  1  0  0  0  0
 12  8  1  0  0  0  0
 13 12  2  0  0  0  0
 13 14  1  0  0  0  0
 14 16  2  0  0  0  0
 15 14  1  0  0  0  0
 15 55  1  0  0  0  0
 15 56  1  0  0  0  0
 16  7  1  0  0  0  0
 16 57  1  0  0  0  0
 17 18  2  0  0  0  0
 18 19  1  0  0  0  0
 18 23  1  0  0  0  0
 19 20  1  0  0  0  0
 20 59  1  0  0  0  0
 20 21  2  0  0  0  0
 21 60  1  0  0  0  0
 22 21  1  0  0  0  0
 22 61  1  0  0  0  0
 23 22  2  0  0  0  0
 24 25  1  0  0  0  0
 24 19  2  0  0  0  0
 25 41  2  0  0  0  0
 26 28  2  0  0  0  0
 26 25  1  0  0  0  0
 27 26  1  0  0  0  0
 28 39  1  0  0  0  0
 29 28  1  0  0  0  0
 30 63  1  0  0  0  0
 30 29  2  0  0  0  0
 31 30  1  0  0  0  0
 32 66  1  0  0  0  0
 32 31  1  0  0  0  0
 33 31  2  0  0  0  0
 33 34  1  0  0  0  0
 34 35  2  0  0  0  0
 35 29  1  0  0  0  0
 35 36  1  0  0  0  0
 37 36  1  0  0  0  0
 37 38  1  0  0  0  0
 38 73  1  0  0  0  0
 38 71  1  0  0  0  0
 39 74  1  0  0  0  0
 39 40  2  0  0  0  0
 40 45  1  0  0  0  0
 41 40  1  0  0  0  0
 41 42  1  0  0  0  0
 42 43  2  0  0  0  0
 43 44  1  0  0  0  0
 43 76  1  0  0  0  0
 44 77  1  0  0  0  0
 45 78  1  0  0  0  0
 45 44  2  0  0  0  0
 46  3  1  0  0  0  0
 47 10  1  0  0  0  0
 48 10  1  0  0  0  0
 49 11  1  0  0  0  0
 52 12  1  0  0  0  0
 53 13  1  0  0  0  0
 54 15  1  0  0  0  0
 58 17  1  0  0  0  0
 62 23  1  0  0  0  0
 64 32  1  0  0  0  0
 65 32  1  0  0  0  0
 67 33  1  0  0  0  0
 68 34  1  0  0  0  0
 69 37  1  0  0  0  0
 70 37  1  0  0  0  0
 72 38  1  0  0  0  0
 75 42  1  0  0  0  0
M  END
$$$$
