O=P1(O)OC2=C(C3=C(C)C=C(C)C=C3C)C=C4C(C=CC=C4)=C2C5=C(O1)[C@@]([C@@]6=C(C)C=C(C)C=C6C)=CC7=C5C=CC=C7
 OpenBabel09032010383D

 76 82  0  0  0  0  0  0  0  0999 V2000
    0.6333    2.8330    0.5666 O   0  0  0  0  0  0  0  0  0  0  0  0
    0.0355    1.6628   -0.1492 P   0  0  0  0  0  0  0  0  0  0  0  0
   -0.7551    2.1298   -1.4702 O   0  0  0  0  0  0  0  0  0  0  0  0
   -1.0809    0.8604    0.6869 O   0  0  0  0  0  0  0  0  0  0  0  0
   -1.5410   -0.3532    0.2263 C   0  0  0  0  0  0  0  0  0  0  0  0
   -2.9017   -0.4116   -0.1302 C   0  0  0  0  0  0  0  0  0  0  0  0
   -3.7765    0.7808   -0.0993 C   0  0  0  0  0  0  0  0  0  0  0  0
   -4.2814    1.2777    1.1284 C   0  0  0  0  0  0  0  0  0  0  0  0
   -3.9583    0.6195    2.4466 C   0  0  0  0  0  0  0  0  0  0  0  0
   -5.0842    2.4314    1.1401 C   0  0  0  0  0  0  0  0  0  0  0  0
   -5.4180    3.0936   -0.0432 C   0  0  0  0  0  0  0  0  0  0  0  0
   -6.3166    4.2945   -0.0149 C   0  0  0  0  0  0  0  0  0  0  0  0
   -4.9568    2.5818   -1.2575 C   0  0  0  0  0  0  0  0  0  0  0  0
   -4.1289    1.4465   -1.3016 C   0  0  0  0  0  0  0  0  0  0  0  0
   -3.6897    0.9431   -2.6548 C   0  0  0  0  0  0  0  0  0  0  0  0
   -3.4232   -1.6424   -0.5320 C   0  0  0  0  0  0  0  0  0  0  0  0
   -2.6143   -2.7763   -0.6326 C   0  0  0  0  0  0  0  0  0  0  0  0
   -1.2386   -2.7054   -0.2837 C   0  0  0  0  0  0  0  0  0  0  0  0
   -0.4752   -3.8776   -0.5201 C   0  0  0  0  0  0  0  0  0  0  0  0
   -1.0408   -5.0625   -0.9994 C   0  0  0  0  0  0  0  0  0  0  0  0
   -2.3959   -5.1144   -1.2807 C   0  0  0  0  0  0  0  0  0  0  0  0
   -3.1754   -3.9752   -1.1048 C   0  0  0  0  0  0  0  0  0  0  0  0
   -0.6780   -1.4772    0.2277 C   0  0  0  0  0  0  0  0  0  0  0  0
    0.6785   -1.3619    0.7277 C   0  0  0  0  0  0  0  0  0  0  0  0
    1.5448   -0.3666    0.2112 C   0  0  0  0  0  0  0  0  0  0  0  0
    1.0552    0.5445   -0.6982 O   0  0  0  0  0  0  0  0  0  0  0  0
    2.9149   -0.2895    0.5169 C   0  0  0  0  0  0  0  0  0  0  0  0
    3.8077    0.7142   -0.0987 C   0  0  0  0  0  0  0  0  0  0  0  0
    4.3229    0.5145   -1.4045 C   0  0  0  0  0  0  0  0  0  0  0  0
    3.9654   -0.7036   -2.2185 C   0  0  0  0  0  0  0  0  0  0  0  0
    5.1712    1.4770   -1.9781 C   0  0  0  0  0  0  0  0  0  0  0  0
    5.5300    2.6321   -1.2803 C   0  0  0  0  0  0  0  0  0  0  0  0
    6.4681    3.6303   -1.8910 C   0  0  0  0  0  0  0  0  0  0  0  0
    5.0468    2.8159    0.0170 C   0  0  0  0  0  0  0  0  0  0  0  0
    4.1790    1.8830    0.6109 C   0  0  0  0  0  0  0  0  0  0  0  0
    3.7111    2.1456    2.0202 C   0  0  0  0  0  0  0  0  0  0  0  0
    3.4368   -1.2088    1.4290 C   0  0  0  0  0  0  0  0  0  0  0  0
    2.6224   -2.1559    2.0541 C   0  0  0  0  0  0  0  0  0  0  0  0
    1.2410   -2.2323    1.7315 C   0  0  0  0  0  0  0  0  0  0  0  0
    0.4741   -3.1597    2.4823 C   0  0  0  0  0  0  0  0  0  0  0  0
    1.0409   -4.0040    3.4410 C   0  0  0  0  0  0  0  0  0  0  0  0
    2.4004   -3.9392    3.6986 C   0  0  0  0  0  0  0  0  0  0  0  0
    3.1842   -3.0158    3.0132 C   0  0  0  0  0  0  0  0  0  0  0  0
   -1.2796    2.9279   -1.2756 H   0  0  0  0  0  0  0  0  0  0  0  0
   -4.6352    0.9626    3.2368 H   0  0  0  0  0  0  0  0  0  0  0  0
   -4.0771   -0.4668    2.3839 H   0  0  0  0  0  0  0  0  0  0  0  0
   -2.9360    0.8609    2.7522 H   0  0  0  0  0  0  0  0  0  0  0  0
   -5.4598    2.8141    2.0879 H   0  0  0  0  0  0  0  0  0  0  0  0
   -7.3626    3.9810   -0.0863 H   0  0  0  0  0  0  0  0  0  0  0  0
   -6.1795    4.8634    0.9108 H   0  0  0  0  0  0  0  0  0  0  0  0
   -6.0918    4.9705   -0.8467 H   0  0  0  0  0  0  0  0  0  0  0  0
   -5.2449    3.0731   -2.1857 H   0  0  0  0  0  0  0  0  0  0  0  0
   -2.6505    0.6027   -2.6433 H   0  0  0  0  0  0  0  0  0  0  0  0
   -3.7494    1.7363   -3.4082 H   0  0  0  0  0  0  0  0  0  0  0  0
   -4.3361    0.1194   -2.9736 H   0  0  0  0  0  0  0  0  0  0  0  0
   -4.4776   -1.7010   -0.8004 H   0  0  0  0  0  0  0  0  0  0  0  0
    0.5990   -3.8815   -0.3435 H   0  0  0  0  0  0  0  0  0  0  0  0
   -0.4138   -5.9362   -1.1561 H   0  0  0  0  0  0  0  0  0  0  0  0
   -2.8435   -6.0310   -1.6546 H   0  0  0  0  0  0  0  0  0  0  0  0
   -4.2330   -4.0272   -1.3575 H   0  0  0  0  0  0  0  0  0  0  0  0
    4.1334   -1.6198   -1.6436 H   0  0  0  0  0  0  0  0  0  0  0  0
    4.5849   -0.7773   -3.1190 H   0  0  0  0  0  0  0  0  0  0  0  0
    2.9199   -0.6548   -2.5377 H   0  0  0  0  0  0  0  0  0  0  0  0
    5.5580    1.3218   -2.9837 H   0  0  0  0  0  0  0  0  0  0  0  0
    7.5027    3.3678   -1.6494 H   0  0  0  0  0  0  0  0  0  0  0  0
    6.3548    3.6581   -2.9798 H   0  0  0  0  0  0  0  0  0  0  0  0
    6.2624    4.6392   -1.5182 H   0  0  0  0  0  0  0  0  0  0  0  0
    5.3413    3.7035    0.5745 H   0  0  0  0  0  0  0  0  0  0  0  0
    3.8008    3.2073    2.2747 H   0  0  0  0  0  0  0  0  0  0  0  0
    4.3183    1.5716    2.7272 H   0  0  0  0  0  0  0  0  0  0  0  0
    2.6583    1.8809    2.1523 H   0  0  0  0  0  0  0  0  0  0  0  0
    4.4983   -1.1591    1.6703 H   0  0  0  0  0  0  0  0  0  0  0  0
   -0.6026   -3.2300    2.3374 H   0  0  0  0  0  0  0  0  0  0  0  0
    0.4122   -4.7036    3.9853 H   0  0  0  0  0  0  0  0  0  0  0  0
    2.8491   -4.5912    4.4429 H   0  0  0  0  0  0  0  0  0  0  0  0
    4.2461   -2.9619    3.2469 H   0  0  0  0  0  0  0  0  0  0  0  0
  2  1  2  0  0  0  0
  2  4  1  0  0  0  0
  3 44  1  0  0  0  0
  3  2  1  0  0  0  0
  5 23  1  0  0  0  0
  5  4  1  0  0  0  0
  6  7  1  0  0  0  0
  6  5  2  0  0  0  0
  7  8  2  0  0  0  0
  8 10  1  0  0  0  0
  8  9  1  0  0  0  0
  9 47  1  0  0  0  0
  9 45  1  0  0  0  0
 10 48  1  0  0  0  0
 11 12  1  0  0  0  0
 11 10  2  0  0  0  0
 12 50  1  0  0  0  0
 13 11  1  0  0  0  0
 14 13  2  0  0  0  0
 14  7  1  0  0  0  0
 15 53  1  0  0  0  0
 15 14  1  0  0  0  0
 16  6  1  0  0  0  0
 17 16  2  0  0  0  0
 17 18  1  0  0  0  0
 18 23  2  0  0  0  0
 19 57  1  0  0  0  0
 19 18  1  0  0  0  0
 20 19  2  0  0  0  0
 21 22  2  0  0  0  0
 21 20  1  0  0  0  0
 22 17  1  0  0  0  0
 23 24  1  0  0  0  0
 24 39  2  0  0  0  0
 25 27  2  0  0  0  0
 25 24  1  0  0  0  0
 26  2  1  0  0  0  0
 26 25  1  0  0  0  0
 27 37  1  0  0  0  0
 28 27  1  0  0  0  0
 28 35  2  0  0  0  0
 29 28  1  0  0  0  0
 30 61  1  0  0  0  0
 30 29  1  0  0  0  0
 31 29  2  0  0  0  0
 31 32  1  0  0  0  0
 32 34  2  0  0  0  0
 33 65  1  0  0  0  0
 33 67  1  0  0  0  0
 33 32  1  0  0  0  0
 34 68  1  0  0  0  0
 34 35  1  0  0  0  0
 35 36  1  0  0  0  0
 36 71  1  0  0  0  0
 36 69  1  0  0  0  0
 36 70  1  0  0  0  0
 37 72  1  0  0  0  0
 37 38  2  0  0  0  0
 38 43  1  0  0  0  0
 39 38  1  0  0  0  0
 39 40  1  0  0  0  0
 40 41  2  0  0  0  0
 41 42  1  0  0  0  0
 41 74  1  0  0  0  0
 42 75  1  0  0  0  0
 43 76  1  0  0  0  0
 43 42  2  0  0  0  0
 46  9  1  0  0  0  0
 49 12  1  0  0  0  0
 51 12  1  0  0  0  0
 52 13  1  0  0  0  0
 54 15  1  0  0  0  0
 55 15  1  0  0  0  0
 56 16  1  0  0  0  0
 58 20  1  0  0  0  0
 59 21  1  0  0  0  0
 60 22  1  0  0  0  0
 62 30  1  0  0  0  0
 63 30  1  0  0  0  0
 64 31  1  0  0  0  0
 66 33  1  0  0  0  0
 73 40  1  0  0  0  0
M  END
$$$$
