O=P1(O)OC2=C(C3=C(OC)C=CC=C3OC)C=C4C(C=CC=C4)=C2C5=C(O1)[C@@]([C@@]6=C(OC)C=CC=C6OC)=CC7=C5C=CC=C7
 OpenBabel09032010373D

 74 80  0  0  0  0  0  0  0  0999 V2000
    0.8931    3.0667   -0.7396 O   0  0  0  0  0  0  0  0  0  0  0  0
    0.3187    1.7113   -1.0080 P   0  0  0  0  0  0  0  0  0  0  0  0
   -0.4914    1.6708   -2.3988 O   0  0  0  0  0  0  0  0  0  0  0  0
    1.3457    0.4916   -1.2057 O   0  0  0  0  0  0  0  0  0  0  0  0
    1.6323   -0.3707   -0.1720 C   0  0  0  0  0  0  0  0  0  0  0  0
    2.9765   -0.4151    0.2397 C   0  0  0  0  0  0  0  0  0  0  0  0
    3.9895    0.5192   -0.2866 C   0  0  0  0  0  0  0  0  0  0  0  0
    4.8649    0.1351   -1.3202 C   0  0  0  0  0  0  0  0  0  0  0  0
    4.8170   -1.1436   -1.8224 O   0  0  0  0  0  0  0  0  0  0  0  0
    4.1647   -1.1516   -3.0928 C   0  0  0  0  0  0  0  0  0  0  0  0
    5.8448    1.0053   -1.8013 C   0  0  0  0  0  0  0  0  0  0  0  0
    5.9448    2.2900   -1.2769 C   0  0  0  0  0  0  0  0  0  0  0  0
    5.0778    2.7008   -0.2621 C   0  0  0  0  0  0  0  0  0  0  0  0
    4.1028    1.8278    0.2370 C   0  0  0  0  0  0  0  0  0  0  0  0
    3.2395    2.1455    1.2584 O   0  0  0  0  0  0  0  0  0  0  0  0
    3.0994    3.5216    1.5879 C   0  0  0  0  0  0  0  0  0  0  0  0
    3.3473   -1.3642    1.1920 C   0  0  0  0  0  0  0  0  0  0  0  0
    2.4093   -2.2228    1.7644 C   0  0  0  0  0  0  0  0  0  0  0  0
    1.0463   -2.1570    1.3680 C   0  0  0  0  0  0  0  0  0  0  0  0
    0.1539   -2.9853    2.0989 C   0  0  0  0  0  0  0  0  0  0  0  0
    0.5826   -3.8742    3.0900 C   0  0  0  0  0  0  0  0  0  0  0  0
    1.9277   -3.9549    3.4085 C   0  0  0  0  0  0  0  0  0  0  0  0
    2.8333   -3.1258    2.7550 C   0  0  0  0  0  0  0  0  0  0  0  0
    0.6306   -1.2470    0.3226 C   0  0  0  0  0  0  0  0  0  0  0  0
   -0.7292   -1.1978   -0.1848 C   0  0  0  0  0  0  0  0  0  0  0  0
   -1.4329    0.0267   -0.1815 C   0  0  0  0  0  0  0  0  0  0  0  0
   -0.7618    1.1982    0.0750 O   0  0  0  0  0  0  0  0  0  0  0  0
   -2.8222    0.1348   -0.3741 C   0  0  0  0  0  0  0  0  0  0  0  0
   -3.5448    1.4045   -0.1579 C   0  0  0  0  0  0  0  0  0  0  0  0
   -4.0914    1.7115    1.1039 C   0  0  0  0  0  0  0  0  0  0  0  0
   -3.9896    0.8049    2.1321 O   0  0  0  0  0  0  0  0  0  0  0  0
   -2.9778    1.2139    3.0561 C   0  0  0  0  0  0  0  0  0  0  0  0
   -4.7964    2.8989    1.3299 C   0  0  0  0  0  0  0  0  0  0  0  0
   -4.9297    3.8336    0.3069 C   0  0  0  0  0  0  0  0  0  0  0  0
   -4.3732    3.5724   -0.9425 C   0  0  0  0  0  0  0  0  0  0  0  0
   -3.7093    2.3620   -1.1749 C   0  0  0  0  0  0  0  0  0  0  0  0
   -3.1325    2.1685   -2.4068 O   0  0  0  0  0  0  0  0  0  0  0  0
   -4.1182    1.7495   -3.3548 C   0  0  0  0  0  0  0  0  0  0  0  0
   -3.5259   -1.0213   -0.7114 C   0  0  0  0  0  0  0  0  0  0  0  0
   -2.8712   -2.2450   -0.8808 C   0  0  0  0  0  0  0  0  0  0  0  0
   -1.4750   -2.3460   -0.6347 C   0  0  0  0  0  0  0  0  0  0  0  0
   -0.8782   -3.6048   -0.8944 C   0  0  0  0  0  0  0  0  0  0  0  0
   -1.6185   -4.7132   -1.3140 C   0  0  0  0  0  0  0  0  0  0  0  0
   -2.9867   -4.5976   -1.5033 C   0  0  0  0  0  0  0  0  0  0  0  0
   -3.6074   -3.3693   -1.2920 C   0  0  0  0  0  0  0  0  0  0  0  0
   -1.2689    2.2643   -2.3816 H   0  0  0  0  0  0  0  0  0  0  0  0
    3.9890   -2.1950   -3.3712 H   0  0  0  0  0  0  0  0  0  0  0  0
    4.8017   -0.6998   -3.8604 H   0  0  0  0  0  0  0  0  0  0  0  0
    3.1950   -0.6434   -3.0568 H   0  0  0  0  0  0  0  0  0  0  0  0
    6.5329    0.6778   -2.5746 H   0  0  0  0  0  0  0  0  0  0  0  0
    6.7055    2.9710   -1.6491 H   0  0  0  0  0  0  0  0  0  0  0  0
    5.1958    3.7042    0.1333 H   0  0  0  0  0  0  0  0  0  0  0  0
    2.9093    4.1385    0.7038 H   0  0  0  0  0  0  0  0  0  0  0  0
    2.2379    3.6195    2.2554 H   0  0  0  0  0  0  0  0  0  0  0  0
    3.9825    3.8777    2.1280 H   0  0  0  0  0  0  0  0  0  0  0  0
    4.3889   -1.4050    1.5078 H   0  0  0  0  0  0  0  0  0  0  0  0
   -0.9177   -2.9408    1.9143 H   0  0  0  0  0  0  0  0  0  0  0  0
   -0.1428   -4.4931    3.6110 H   0  0  0  0  0  0  0  0  0  0  0  0
    2.2708   -4.6415    4.1770 H   0  0  0  0  0  0  0  0  0  0  0  0
    3.8830   -3.1775    3.0390 H   0  0  0  0  0  0  0  0  0  0  0  0
   -2.0446    1.4871    2.5522 H   0  0  0  0  0  0  0  0  0  0  0  0
   -3.3334    2.0470    3.6714 H   0  0  0  0  0  0  0  0  0  0  0  0
   -2.7697    0.3683    3.7184 H   0  0  0  0  0  0  0  0  0  0  0  0
   -5.2352    3.0942    2.3043 H   0  0  0  0  0  0  0  0  0  0  0  0
   -5.4584    4.7661    0.4857 H   0  0  0  0  0  0  0  0  0  0  0  0
   -4.4503    4.3137   -1.7331 H   0  0  0  0  0  0  0  0  0  0  0  0
   -4.7949    2.5738   -3.6029 H   0  0  0  0  0  0  0  0  0  0  0  0
   -4.6866    0.8856   -2.9929 H   0  0  0  0  0  0  0  0  0  0  0  0
   -3.5958    1.4528   -4.2691 H   0  0  0  0  0  0  0  0  0  0  0  0
   -4.6033   -0.9565   -0.8551 H   0  0  0  0  0  0  0  0  0  0  0  0
    0.1970   -3.7367   -0.7810 H   0  0  0  0  0  0  0  0  0  0  0  0
   -1.1178   -5.6608   -1.4934 H   0  0  0  0  0  0  0  0  0  0  0  0
   -3.5694   -5.4556   -1.8270 H   0  0  0  0  0  0  0  0  0  0  0  0
   -4.6798   -3.2938   -1.4621 H   0  0  0  0  0  0  0  0  0  0  0  0
  2  1  2  0  0  0  0
  2 27  1  0  0  0  0
  3 46  1  0  0  0  0
  3  2  1  0  0  0  0
  4  2  1  0  0  0  0
  4  5  1  0  0  0  0
  5  6  2  0  0  0  0
  5 24  1  0  0  0  0
  6 17  1  0  0  0  0
  7 14  2  0  0  0  0
  7  6  1  0  0  0  0
  8  7  1  0  0  0  0
  9  8  1  0  0  0  0
 10 49  1  0  0  0  0
 10  9  1  0  0  0  0
 11  8  2  0  0  0  0
 11 12  1  0  0  0  0
 12 13  2  0  0  0  0
 13 52  1  0  0  0  0
 13 14  1  0  0  0  0
 14 15  1  0  0  0  0
 15 16  1  0  0  0  0
 16 55  1  0  0  0  0
 16 54  1  0  0  0  0
 17 56  1  0  0  0  0
 17 18  2  0  0  0  0
 18 23  1  0  0  0  0
 19 18  1  0  0  0  0
 19 20  1  0  0  0  0
 20 21  2  0  0  0  0
 21 22  1  0  0  0  0
 21 58  1  0  0  0  0
 22 59  1  0  0  0  0
 23 60  1  0  0  0  0
 23 22  2  0  0  0  0
 24 19  2  0  0  0  0
 25 26  2  0  0  0  0
 25 24  1  0  0  0  0
 26 27  1  0  0  0  0
 28 26  1  0  0  0  0
 28 29  1  0  0  0  0
 29 30  2  0  0  0  0
 30 33  1  0  0  0  0
 30 31  1  0  0  0  0
 31 32  1  0  0  0  0
 32 62  1  0  0  0  0
 32 63  1  0  0  0  0
 33 64  1  0  0  0  0
 34 65  1  0  0  0  0
 34 33  2  0  0  0  0
 35 34  1  0  0  0  0
 36 35  2  0  0  0  0
 36 29  1  0  0  0  0
 37 36  1  0  0  0  0
 38 68  1  0  0  0  0
 38 37  1  0  0  0  0
 39 28  2  0  0  0  0
 40 39  1  0  0  0  0
 40 41  1  0  0  0  0
 41 25  1  0  0  0  0
 42 71  1  0  0  0  0
 42 41  2  0  0  0  0
 43 42  1  0  0  0  0
 44 43  2  0  0  0  0
 44 45  1  0  0  0  0
 45 40  2  0  0  0  0
 47 10  1  0  0  0  0
 48 10  1  0  0  0  0
 50 11  1  0  0  0  0
 51 12  1  0  0  0  0
 53 16  1  0  0  0  0
 57 20  1  0  0  0  0
 61 32  1  0  0  0  0
 66 35  1  0  0  0  0
 67 38  1  0  0  0  0
 69 38  1  0  0  0  0
 70 39  1  0  0  0  0
 72 43  1  0  0  0  0
 73 44  1  0  0  0  0
 74 45  1  0  0  0  0
M  END
$$$$
