O=P1(O)OC2=C(C3=CC(C(F)(F)F)=CC(C(F)(F)F)=C3)C=C4C(CCCC4)=C2C5=C(O1)C(C6=CC(C(F)(F)F)=CC(C(F)(F)F)=C6)=CC7=C5CCCC7
 OpenBabel09032010383D

 78 84  0  0  0  0  0  0  0  0999 V2000
   -0.8395   -2.6133    1.8154 O   0  0  0  0  0  0  0  0  0  0  0  0
   -0.1663   -1.9728    0.6402 P   0  0  0  0  0  0  0  0  0  0  0  0
    0.4983   -3.1066   -0.2885 O   0  0  0  0  0  0  0  0  0  0  0  0
   -1.1519   -1.2004   -0.3767 O   0  0  0  0  0  0  0  0  0  0  0  0
   -1.5718    0.0485    0.0165 C   0  0  0  0  0  0  0  0  0  0  0  0
   -2.9290    0.2196    0.3339 C   0  0  0  0  0  0  0  0  0  0  0  0
   -3.9162   -0.8556    0.1756 C   0  0  0  0  0  0  0  0  0  0  0  0
   -4.7191   -0.9145   -0.9746 C   0  0  0  0  0  0  0  0  0  0  0  0
   -5.6728   -1.9298   -1.1488 C   0  0  0  0  0  0  0  0  0  0  0  0
   -6.5422   -1.9669   -2.3837 C   0  0  0  0  0  0  0  0  0  0  0  0
   -7.7634   -1.4043   -2.1707 F   0  0  0  0  0  0  0  0  0  0  0  0
   -6.7847   -3.2344   -2.8195 F   0  0  0  0  0  0  0  0  0  0  0  0
   -6.0034   -1.3051   -3.4448 F   0  0  0  0  0  0  0  0  0  0  0  0
   -5.8288   -2.8920   -0.1383 C   0  0  0  0  0  0  0  0  0  0  0  0
   -5.0446   -2.8523    1.0265 C   0  0  0  0  0  0  0  0  0  0  0  0
   -5.2018   -3.9098    2.0940 C   0  0  0  0  0  0  0  0  0  0  0  0
   -4.8537   -3.4800    3.3375 F   0  0  0  0  0  0  0  0  0  0  0  0
   -6.4852   -4.3562    2.2036 F   0  0  0  0  0  0  0  0  0  0  0  0
   -4.4452   -5.0134    1.8453 F   0  0  0  0  0  0  0  0  0  0  0  0
   -4.0887   -1.8329    1.1669 C   0  0  0  0  0  0  0  0  0  0  0  0
   -3.3354    1.4701    0.8053 C   0  0  0  0  0  0  0  0  0  0  0  0
   -2.4155    2.5111    0.9966 C   0  0  0  0  0  0  0  0  0  0  0  0
   -1.0552    2.3174    0.6606 C   0  0  0  0  0  0  0  0  0  0  0  0
   -0.0383    3.3925    1.0238 C   0  0  0  0  0  0  0  0  0  0  0  0
   -0.5431    4.3958    2.0597 C   0  0  0  0  0  0  0  0  0  0  0  0
   -1.9071    4.9204    1.6433 C   0  0  0  0  0  0  0  0  0  0  0  0
   -2.9210    3.7829    1.6397 C   0  0  0  0  0  0  0  0  0  0  0  0
   -0.6225    1.0918    0.0648 C   0  0  0  0  0  0  0  0  0  0  0  0
    0.6966    0.8877   -0.4644 C   0  0  0  0  0  0  0  0  0  0  0  0
    1.5459   -0.1174    0.0629 C   0  0  0  0  0  0  0  0  0  0  0  0
    1.0591   -0.9914    1.0099 O   0  0  0  0  0  0  0  0  0  0  0  0
    2.9051   -0.2324   -0.2847 C   0  0  0  0  0  0  0  0  0  0  0  0
    3.8115   -1.2019    0.3496 C   0  0  0  0  0  0  0  0  0  0  0  0
    4.7887   -0.7756    1.2644 C   0  0  0  0  0  0  0  0  0  0  0  0
    5.6744   -1.6846    1.8677 C   0  0  0  0  0  0  0  0  0  0  0  0
    6.7459   -1.2040    2.8194 C   0  0  0  0  0  0  0  0  0  0  0  0
    6.4631   -0.0018    3.3927 F   0  0  0  0  0  0  0  0  0  0  0  0
    6.9629   -2.0671    3.8506 F   0  0  0  0  0  0  0  0  0  0  0  0
    7.9501   -1.0507    2.2020 F   0  0  0  0  0  0  0  0  0  0  0  0
    5.5727   -3.0467    1.5413 C   0  0  0  0  0  0  0  0  0  0  0  0
    4.6013   -3.5015    0.6360 C   0  0  0  0  0  0  0  0  0  0  0  0
    4.4891   -4.9636    0.2772 C   0  0  0  0  0  0  0  0  0  0  0  0
    5.0699   -5.2496   -0.9198 F   0  0  0  0  0  0  0  0  0  0  0  0
    3.1970   -5.3864    0.1801 F   0  0  0  0  0  0  0  0  0  0  0  0
    5.0808   -5.7869    1.1868 F   0  0  0  0  0  0  0  0  0  0  0  0
    3.7418   -2.5665    0.0365 C   0  0  0  0  0  0  0  0  0  0  0  0
    3.4022    0.6227   -1.2725 C   0  0  0  0  0  0  0  0  0  0  0  0
    2.5753    1.5454   -1.9263 C   0  0  0  0  0  0  0  0  0  0  0  0
    1.2176    1.6586   -1.5501 C   0  0  0  0  0  0  0  0  0  0  0  0
    0.2922    2.5461   -2.3757 C   0  0  0  0  0  0  0  0  0  0  0  0
    0.8466    2.9089   -3.7524 C   0  0  0  0  0  0  0  0  0  0  0  0
    2.2667    3.4297   -3.6109 C   0  0  0  0  0  0  0  0  0  0  0  0
    3.1708    2.3264   -3.0758 C   0  0  0  0  0  0  0  0  0  0  0  0
    0.1929   -3.9850    0.0082 H   0  0  0  0  0  0  0  0  0  0  0  0
   -4.5922   -0.1583   -1.7506 H   0  0  0  0  0  0  0  0  0  0  0  0
   -6.5710   -3.6834   -0.2599 H   0  0  0  0  0  0  0  0  0  0  0  0
   -3.4681   -1.8014    2.0645 H   0  0  0  0  0  0  0  0  0  0  0  0
   -4.3807    1.6257    1.0719 H   0  0  0  0  0  0  0  0  0  0  0  0
    0.8677    2.9245    1.4270 H   0  0  0  0  0  0  0  0  0  0  0  0
    0.2447    3.9511    0.1297 H   0  0  0  0  0  0  0  0  0  0  0  0
    0.1699    5.2232    2.1476 H   0  0  0  0  0  0  0  0  0  0  0  0
   -0.6096    3.9205    3.0465 H   0  0  0  0  0  0  0  0  0  0  0  0
   -2.2388    5.7092    2.3277 H   0  0  0  0  0  0  0  0  0  0  0  0
   -1.8422    5.3686    0.6437 H   0  0  0  0  0  0  0  0  0  0  0  0
   -3.1950    3.5489    2.6766 H   0  0  0  0  0  0  0  0  0  0  0  0
   -3.8294    4.1204    1.1263 H   0  0  0  0  0  0  0  0  0  0  0  0
    4.8589    0.2846    1.5117 H   0  0  0  0  0  0  0  0  0  0  0  0
    6.2585   -3.7610    2.0008 H   0  0  0  0  0  0  0  0  0  0  0  0
    3.0051   -2.9098   -0.6907 H   0  0  0  0  0  0  0  0  0  0  0  0
    4.4461    0.5382   -1.5740 H   0  0  0  0  0  0  0  0  0  0  0  0
    0.0987    3.4771   -1.8398 H   0  0  0  0  0  0  0  0  0  0  0  0
   -0.6686    2.0403   -2.5281 H   0  0  0  0  0  0  0  0  0  0  0  0
    0.8327    2.0307   -4.4102 H   0  0  0  0  0  0  0  0  0  0  0  0
    0.2089    3.6697   -4.2164 H   0  0  0  0  0  0  0  0  0  0  0  0
    2.2799    4.2897   -2.9294 H   0  0  0  0  0  0  0  0  0  0  0  0
    2.6438    3.7806   -4.5779 H   0  0  0  0  0  0  0  0  0  0  0  0
    3.3845    1.6187   -3.8873 H   0  0  0  0  0  0  0  0  0  0  0  0
    4.1245    2.7703   -2.7658 H   0  0  0  0  0  0  0  0  0  0  0  0
  2 31  1  0  0  0  0
  2  1  2  0  0  0  0
  3 54  1  0  0  0  0
  3  2  1  0  0  0  0
  4  5  1  0  0  0  0
  4  2  1  0  0  0  0
  5 28  2  0  0  0  0
  5  6  1  0  0  0  0
  6 21  2  0  0  0  0
  7  6  1  0  0  0  0
  7 20  2  0  0  0  0
  8  7  1  0  0  0  0
  9  8  2  0  0  0  0
  9 14  1  0  0  0  0
 10 11  1  0  0  0  0
 10  9  1  0  0  0  0
 12 10  1  0  0  0  0
 13 10  1  0  0  0  0
 14 15  2  0  0  0  0
 15 20  1  0  0  0  0
 15 16  1  0  0  0  0
 16 18  1  0  0  0  0
 16 17  1  0  0  0  0
 19 16  1  0  0  0  0
 20 57  1  0  0  0  0
 21 22  1  0  0  0  0
 21 58  1  0  0  0  0
 22 27  1  0  0  0  0
 23 22  2  0  0  0  0
 23 24  1  0  0  0  0
 24 59  1  0  0  0  0
 24 25  1  0  0  0  0
 25 61  1  0  0  0  0
 25 62  1  0  0  0  0
 26 25  1  0  0  0  0
 26 63  1  0  0  0  0
 27 26  1  0  0  0  0
 27 65  1  0  0  0  0
 28 23  1  0  0  0  0
 29 30  2  0  0  0  0
 29 28  1  0  0  0  0
 30 31  1  0  0  0  0
 32 30  1  0  0  0  0
 32 33  1  0  0  0  0
 33 34  1  0  0  0  0
 34 67  1  0  0  0  0
 34 35  2  0  0  0  0
 35 36  1  0  0  0  0
 36 37  1  0  0  0  0
 36 38  1  0  0  0  0
 39 36  1  0  0  0  0
 40 35  1  0  0  0  0
 40 68  1  0  0  0  0
 41 40  2  0  0  0  0
 42 41  1  0  0  0  0
 42 45  1  0  0  0  0
 43 42  1  0  0  0  0
 44 42  1  0  0  0  0
 46 33  2  0  0  0  0
 46 41  1  0  0  0  0
 47 32  2  0  0  0  0
 48 49  2  0  0  0  0
 48 47  1  0  0  0  0
 49 29  1  0  0  0  0
 50 71  1  0  0  0  0
 50 49  1  0  0  0  0
 51 52  1  0  0  0  0
 51 50  1  0  0  0  0
 52 53  1  0  0  0  0
 52 75  1  0  0  0  0
 53 78  1  0  0  0  0
 53 48  1  0  0  0  0
 55  8  1  0  0  0  0
 56 14  1  0  0  0  0
 60 24  1  0  0  0  0
 64 26  1  0  0  0  0
 66 27  1  0  0  0  0
 69 46  1  0  0  0  0
 70 47  1  0  0  0  0
 72 50  1  0  0  0  0
 73 51  1  0  0  0  0
 74 51  1  0  0  0  0
 76 52  1  0  0  0  0
 77 53  1  0  0  0  0
M  END
$$$$
