O=P1(O)OC2=C(C3=CC(COC)=CC=C3)C=C4C(C=CC=C4)=C2C5=C(O1)C(C6=CC=CC(COC)=C6)=CC7=C5C=CC=C7
 OpenBabel09032010383D

 72 78  0  0  0  0  0  0  0  0999 V2000
   -0.2745    2.7266   -0.8213 O   0  0  0  0  0  0  0  0  0  0  0  0
    0.2791    1.7209    0.1392 P   0  0  0  0  0  0  0  0  0  0  0  0
    1.1950    2.4146    1.2656 O   0  0  0  0  0  0  0  0  0  0  0  0
    1.2675    0.6360   -0.5243 O   0  0  0  0  0  0  0  0  0  0  0  0
    1.7144   -0.4119    0.2493 C   0  0  0  0  0  0  0  0  0  0  0  0
    3.0841   -0.4166    0.5729 C   0  0  0  0  0  0  0  0  0  0  0  0
    3.9929    0.6659    0.1580 C   0  0  0  0  0  0  0  0  0  0  0  0
    4.2286    0.9341   -1.2011 C   0  0  0  0  0  0  0  0  0  0  0  0
    5.0735    1.9797   -1.6096 C   0  0  0  0  0  0  0  0  0  0  0  0
    5.2467    2.2552   -3.0843 C   0  0  0  0  0  0  0  0  0  0  0  0
    6.4564    2.9706   -3.3364 O   0  0  0  0  0  0  0  0  0  0  0  0
    6.6127    3.2539   -4.7198 C   0  0  0  0  0  0  0  0  0  0  0  0
    5.6792    2.7745   -0.6289 C   0  0  0  0  0  0  0  0  0  0  0  0
    5.4648    2.5185    0.7249 C   0  0  0  0  0  0  0  0  0  0  0  0
    4.6288    1.4719    1.1144 C   0  0  0  0  0  0  0  0  0  0  0  0
    3.5684   -1.4843    1.3292 C   0  0  0  0  0  0  0  0  0  0  0  0
    2.7205   -2.4961    1.7886 C   0  0  0  0  0  0  0  0  0  0  0  0
    1.3363   -2.4727    1.4662 C   0  0  0  0  0  0  0  0  0  0  0  0
    0.5377   -3.4796    2.0660 C   0  0  0  0  0  0  0  0  0  0  0  0
    1.0761   -4.4858    2.8723 C   0  0  0  0  0  0  0  0  0  0  0  0
    2.4376   -4.5112    3.1256 C   0  0  0  0  0  0  0  0  0  0  0  0
    3.2529   -3.5180    2.5922 C   0  0  0  0  0  0  0  0  0  0  0  0
    0.8052   -1.4317    0.6206 C   0  0  0  0  0  0  0  0  0  0  0  0
   -0.5676   -1.3861    0.1568 C   0  0  0  0  0  0  0  0  0  0  0  0
   -1.3602   -0.2310    0.3874 C   0  0  0  0  0  0  0  0  0  0  0  0
   -0.7878    0.8672    0.9927 O   0  0  0  0  0  0  0  0  0  0  0  0
   -2.7367   -0.1645    0.1127 C   0  0  0  0  0  0  0  0  0  0  0  0
   -3.5592    1.0043    0.4506 C   0  0  0  0  0  0  0  0  0  0  0  0
   -3.5397    2.1599   -0.3411 C   0  0  0  0  0  0  0  0  0  0  0  0
   -4.3354    3.2601   -0.0174 C   0  0  0  0  0  0  0  0  0  0  0  0
   -5.1703    3.2171    1.0987 C   0  0  0  0  0  0  0  0  0  0  0  0
   -5.2204    2.0704    1.8995 C   0  0  0  0  0  0  0  0  0  0  0  0
   -6.1096    2.0151    3.1162 C   0  0  0  0  0  0  0  0  0  0  0  0
   -6.9179    0.8369    3.1329 O   0  0  0  0  0  0  0  0  0  0  0  0
   -8.0469    0.9364    2.2739 C   0  0  0  0  0  0  0  0  0  0  0  0
   -4.4067    0.9749    1.5696 C   0  0  0  0  0  0  0  0  0  0  0  0
   -3.3407   -1.2747   -0.4800 C   0  0  0  0  0  0  0  0  0  0  0  0
   -2.6051   -2.4124   -0.8193 C   0  0  0  0  0  0  0  0  0  0  0  0
   -1.2172   -2.4778   -0.5264 C   0  0  0  0  0  0  0  0  0  0  0  0
   -0.5352   -3.6337   -0.9857 C   0  0  0  0  0  0  0  0  0  0  0  0
   -1.1896   -4.6863   -1.6316 C   0  0  0  0  0  0  0  0  0  0  0  0
   -2.5538   -4.6127   -1.8607 C   0  0  0  0  0  0  0  0  0  0  0  0
   -3.2551   -3.4791   -1.4623 C   0  0  0  0  0  0  0  0  0  0  0  0
    1.7966    3.0653    0.8605 H   0  0  0  0  0  0  0  0  0  0  0  0
    3.7374    0.3193   -1.9549 H   0  0  0  0  0  0  0  0  0  0  0  0
    4.3911    2.8461   -3.4324 H   0  0  0  0  0  0  0  0  0  0  0  0
    5.2804    1.3060   -3.6323 H   0  0  0  0  0  0  0  0  0  0  0  0
    6.6616    2.3264   -5.2985 H   0  0  0  0  0  0  0  0  0  0  0  0
    5.7900    3.8797   -5.0787 H   0  0  0  0  0  0  0  0  0  0  0  0
    7.5505    3.7993   -4.8556 H   0  0  0  0  0  0  0  0  0  0  0  0
    6.3297    3.5979   -0.9182 H   0  0  0  0  0  0  0  0  0  0  0  0
    5.9479    3.1377    1.4764 H   0  0  0  0  0  0  0  0  0  0  0  0
    4.4591    1.2968    2.1754 H   0  0  0  0  0  0  0  0  0  0  0  0
    4.6280   -1.5112    1.5821 H   0  0  0  0  0  0  0  0  0  0  0  0
   -0.5419   -3.4874    1.9246 H   0  0  0  0  0  0  0  0  0  0  0  0
    0.4228   -5.2394    3.3040 H   0  0  0  0  0  0  0  0  0  0  0  0
    2.8644   -5.2884    3.7529 H   0  0  0  0  0  0  0  0  0  0  0  0
    4.3159   -3.5399    2.8257 H   0  0  0  0  0  0  0  0  0  0  0  0
   -2.8965    2.2130   -1.2176 H   0  0  0  0  0  0  0  0  0  0  0  0
   -4.2985    4.1520   -0.6377 H   0  0  0  0  0  0  0  0  0  0  0  0
   -5.7804    4.0850    1.3368 H   0  0  0  0  0  0  0  0  0  0  0  0
   -6.7427    2.9064    3.2032 H   0  0  0  0  0  0  0  0  0  0  0  0
   -5.4710    1.9890    4.0065 H   0  0  0  0  0  0  0  0  0  0  0  0
   -8.6235    0.0114    2.3601 H   0  0  0  0  0  0  0  0  0  0  0  0
   -8.6861    1.7720    2.5751 H   0  0  0  0  0  0  0  0  0  0  0  0
   -7.7387    1.0538    1.2309 H   0  0  0  0  0  0  0  0  0  0  0  0
   -4.4391    0.0846    2.1975 H   0  0  0  0  0  0  0  0  0  0  0  0
   -4.4078   -1.2341   -0.6982 H   0  0  0  0  0  0  0  0  0  0  0  0
    0.5410   -3.7280   -0.8530 H   0  0  0  0  0  0  0  0  0  0  0  0
   -0.6258   -5.5567   -1.9565 H   0  0  0  0  0  0  0  0  0  0  0  0
   -3.0706   -5.4263   -2.3620 H   0  0  0  0  0  0  0  0  0  0  0  0
   -4.3228   -3.4285   -1.6694 H   0  0  0  0  0  0  0  0  0  0  0  0
  1  2  2  0  0  0  0
  2 26  1  0  0  0  0
  2  3  1  0  0  0  0
  4  2  1  0  0  0  0
  4  5  1  0  0  0  0
  5  6  2  0  0  0  0
  5 23  1  0  0  0  0
  6 16  1  0  0  0  0
  7  6  1  0  0  0  0
  7 15  2  0  0  0  0
  8  7  1  0  0  0  0
  9  8  2  0  0  0  0
  9 13  1  0  0  0  0
 10  9  1  0  0  0  0
 11 10  1  0  0  0  0
 12 11  1  0  0  0  0
 13 14  2  0  0  0  0
 14 15  1  0  0  0  0
 14 52  1  0  0  0  0
 15 53  1  0  0  0  0
 16 54  1  0  0  0  0
 16 17  2  0  0  0  0
 17 22  1  0  0  0  0
 18 17  1  0  0  0  0
 18 19  1  0  0  0  0
 19 20  2  0  0  0  0
 20 21  1  0  0  0  0
 20 56  1  0  0  0  0
 21 57  1  0  0  0  0
 22 58  1  0  0  0  0
 22 21  2  0  0  0  0
 23 18  2  0  0  0  0
 24 25  2  0  0  0  0
 24 23  1  0  0  0  0
 25 26  1  0  0  0  0
 27 25  1  0  0  0  0
 27 28  1  0  0  0  0
 28 36  2  0  0  0  0
 29 30  2  0  0  0  0
 29 28  1  0  0  0  0
 30 31  1  0  0  0  0
 31 61  1  0  0  0  0
 31 32  2  0  0  0  0
 32 33  1  0  0  0  0
 33 34  1  0  0  0  0
 33 62  1  0  0  0  0
 33 63  1  0  0  0  0
 35 64  1  0  0  0  0
 35 65  1  0  0  0  0
 35 34  1  0  0  0  0
 36 32  1  0  0  0  0
 36 67  1  0  0  0  0
 37 27  2  0  0  0  0
 38 39  1  0  0  0  0
 38 37  1  0  0  0  0
 39 24  1  0  0  0  0
 40 69  1  0  0  0  0
 40 39  2  0  0  0  0
 41 40  1  0  0  0  0
 42 41  2  0  0  0  0
 42 43  1  0  0  0  0
 43 38  2  0  0  0  0
 44  3  1  0  0  0  0
 45  8  1  0  0  0  0
 46 10  1  0  0  0  0
 47 10  1  0  0  0  0
 48 12  1  0  0  0  0
 49 12  1  0  0  0  0
 50 12  1  0  0  0  0
 51 13  1  0  0  0  0
 55 19  1  0  0  0  0
 59 29  1  0  0  0  0
 60 30  1  0  0  0  0
 66 35  1  0  0  0  0
 68 37  1  0  0  0  0
 70 41  1  0  0  0  0
 71 42  1  0  0  0  0
 72 43  1  0  0  0  0
M  END
$$$$
