O=P1(O)OC2=C(C3=C(C)C=C(C)C=C3C)C=C4C(C=CC=C4)=C2C5=C(O1)[C@@]([C@@]6=C(C)C=C(C)C=C6C)=CC7=C5C=CC=C7
 OpenBabel09032010383D

 76 82  0  0  0  0  0  0  0  0999 V2000
   -0.5899    2.5617   -1.2286 O   0  0  0  0  0  0  0  0  0  0  0  0
   -0.0181    1.6510   -0.1881 P   0  0  0  0  0  0  0  0  0  0  0  0
    0.7709    2.4815    0.9417 O   0  0  0  0  0  0  0  0  0  0  0  0
   -1.0604    0.7632    0.6586 O   0  0  0  0  0  0  0  0  0  0  0  0
   -1.5510   -0.3785    0.0642 C   0  0  0  0  0  0  0  0  0  0  0  0
   -2.9155   -0.3846   -0.2751 C   0  0  0  0  0  0  0  0  0  0  0  0
   -3.7979    0.7743   -0.0278 C   0  0  0  0  0  0  0  0  0  0  0  0
   -4.1171    1.6738   -1.0749 C   0  0  0  0  0  0  0  0  0  0  0  0
   -3.6037    1.4805   -2.4797 C   0  0  0  0  0  0  0  0  0  0  0  0
   -4.9752    2.7592   -0.8274 C   0  0  0  0  0  0  0  0  0  0  0  0
   -5.5005    2.9918    0.4455 C   0  0  0  0  0  0  0  0  0  0  0  0
   -6.4282    4.1453    0.6862 C   0  0  0  0  0  0  0  0  0  0  0  0
   -5.1938    2.1013    1.4765 C   0  0  0  0  0  0  0  0  0  0  0  0
   -4.3549    0.9952    1.2570 C   0  0  0  0  0  0  0  0  0  0  0  0
   -4.0568    0.0785    2.4164 C   0  0  0  0  0  0  0  0  0  0  0  0
   -3.4407   -1.5363   -0.8640 C   0  0  0  0  0  0  0  0  0  0  0  0
   -2.6339   -2.6399   -1.1497 C   0  0  0  0  0  0  0  0  0  0  0  0
   -1.2573   -2.6268   -0.7988 C   0  0  0  0  0  0  0  0  0  0  0  0
   -0.4963   -3.7491   -1.2151 C   0  0  0  0  0  0  0  0  0  0  0  0
   -1.0652   -4.8434   -1.8725 C   0  0  0  0  0  0  0  0  0  0  0  0
   -2.4209   -4.8479   -2.1564 C   0  0  0  0  0  0  0  0  0  0  0  0
   -3.1982   -3.7490   -1.8026 C   0  0  0  0  0  0  0  0  0  0  0  0
   -0.6929   -1.4936   -0.1061 C   0  0  0  0  0  0  0  0  0  0  0  0
    0.6591   -1.4611    0.4191 C   0  0  0  0  0  0  0  0  0  0  0  0
    1.5347   -0.3993    0.0817 C   0  0  0  0  0  0  0  0  0  0  0  0
    1.0901    0.6191   -0.7319 O   0  0  0  0  0  0  0  0  0  0  0  0
    2.8937   -0.3584    0.4473 C   0  0  0  0  0  0  0  0  0  0  0  0
    3.7813    0.7588    0.0569 C   0  0  0  0  0  0  0  0  0  0  0  0
    4.2902    0.8531   -1.2627 C   0  0  0  0  0  0  0  0  0  0  0  0
    3.9602   -0.1721   -2.3188 C   0  0  0  0  0  0  0  0  0  0  0  0
    5.1034    1.9412   -1.6239 C   0  0  0  0  0  0  0  0  0  0  0  0
    5.4442    2.9296   -0.6980 C   0  0  0  0  0  0  0  0  0  0  0  0
    6.3536    4.0567   -1.0892 C   0  0  0  0  0  0  0  0  0  0  0  0
    4.9794    2.8161    0.6136 C   0  0  0  0  0  0  0  0  0  0  0  0
    4.1409    1.7560    0.9998 C   0  0  0  0  0  0  0  0  0  0  0  0
    3.6979    1.6933    2.4412 C   0  0  0  0  0  0  0  0  0  0  0  0
    3.4004   -1.4115    1.2103 C   0  0  0  0  0  0  0  0  0  0  0  0
    2.5785   -2.4518    1.6490 C   0  0  0  0  0  0  0  0  0  0  0  0
    1.2045   -2.4778    1.2870 C   0  0  0  0  0  0  0  0  0  0  0  0
    0.4274   -3.5132    1.8671 C   0  0  0  0  0  0  0  0  0  0  0  0
    0.9787   -4.4999    2.6894 C   0  0  0  0  0  0  0  0  0  0  0  0
    2.3326   -4.4770    2.9804 C   0  0  0  0  0  0  0  0  0  0  0  0
    3.1252   -3.4540    2.4687 C   0  0  0  0  0  0  0  0  0  0  0  0
    1.3095    3.1774    0.5228 H   0  0  0  0  0  0  0  0  0  0  0  0
   -2.5589    1.1581   -2.4891 H   0  0  0  0  0  0  0  0  0  0  0  0
   -4.2144    0.7355   -2.9994 H   0  0  0  0  0  0  0  0  0  0  0  0
   -3.6471    2.4163   -3.0477 H   0  0  0  0  0  0  0  0  0  0  0  0
   -5.2289    3.4370   -1.6407 H   0  0  0  0  0  0  0  0  0  0  0  0
   -7.4621    3.8391    0.4996 H   0  0  0  0  0  0  0  0  0  0  0  0
   -6.1841    4.9870    0.0297 H   0  0  0  0  0  0  0  0  0  0  0  0
   -6.3460    4.5046    1.7174 H   0  0  0  0  0  0  0  0  0  0  0  0
   -5.6142    2.2689    2.4665 H   0  0  0  0  0  0  0  0  0  0  0  0
   -4.2564   -0.9640    2.1489 H   0  0  0  0  0  0  0  0  0  0  0  0
   -4.6874    0.3105    3.2816 H   0  0  0  0  0  0  0  0  0  0  0  0
   -3.0136    0.1859    2.7284 H   0  0  0  0  0  0  0  0  0  0  0  0
   -4.4979   -1.5514   -1.1281 H   0  0  0  0  0  0  0  0  0  0  0  0
    0.5779   -3.7822   -1.0415 H   0  0  0  0  0  0  0  0  0  0  0  0
   -0.4409   -5.6836   -2.1644 H   0  0  0  0  0  0  0  0  0  0  0  0
   -2.8713   -5.6939   -2.6681 H   0  0  0  0  0  0  0  0  0  0  0  0
   -4.2567   -3.7591   -2.0570 H   0  0  0  0  0  0  0  0  0  0  0  0
    4.0614   -1.1889   -1.9263 H   0  0  0  0  0  0  0  0  0  0  0  0
    4.6449   -0.0969   -3.1708 H   0  0  0  0  0  0  0  0  0  0  0  0
    2.9428   -0.0210   -2.6913 H   0  0  0  0  0  0  0  0  0  0  0  0
    5.4816    2.0136   -2.6425 H   0  0  0  0  0  0  0  0  0  0  0  0
    7.3968    3.7706   -0.9234 H   0  0  0  0  0  0  0  0  0  0  0  0
    6.1355    4.9559   -0.5034 H   0  0  0  0  0  0  0  0  0  0  0  0
    6.2210    4.3176   -2.1444 H   0  0  0  0  0  0  0  0  0  0  0  0
    5.2729    3.5642    1.3486 H   0  0  0  0  0  0  0  0  0  0  0  0
    4.3364    0.9998    2.9973 H   0  0  0  0  0  0  0  0  0  0  0  0
    2.6554    1.3757    2.5316 H   0  0  0  0  0  0  0  0  0  0  0  0
    3.7660    2.6778    2.9170 H   0  0  0  0  0  0  0  0  0  0  0  0
    4.4534   -1.3954    1.4899 H   0  0  0  0  0  0  0  0  0  0  0  0
   -0.6464   -3.5603    1.6938 H   0  0  0  0  0  0  0  0  0  0  0  0
    0.3418   -5.2778    3.1022 H   0  0  0  0  0  0  0  0  0  0  0  0
    2.7694   -5.2399    3.6187 H   0  0  0  0  0  0  0  0  0  0  0  0
    4.1817   -3.4368    2.7307 H   0  0  0  0  0  0  0  0  0  0  0  0
  1  2  2  0  0  0  0
  2  4  1  0  0  0  0
  2  3  1  0  0  0  0
  5  4  1  0  0  0  0
  6  7  1  0  0  0  0
  6  5  1  0  0  0  0
  7 14  2  0  0  0  0
  8 10  2  0  0  0  0
  8  7  1  0  0  0  0
  9  8  1  0  0  0  0
 10 11  1  0  0  0  0
 11 12  1  0  0  0  0
 11 13  2  0  0  0  0
 12 51  1  0  0  0  0
 13 52  1  0  0  0  0
 14 13  1  0  0  0  0
 14 15  1  0  0  0  0
 15 55  1  0  0  0  0
 15 54  1  0  0  0  0
 16  6  2  0  0  0  0
 17 16  1  0  0  0  0
 17 18  1  0  0  0  0
 18 23  1  0  0  0  0
 19 57  1  0  0  0  0
 19 18  2  0  0  0  0
 20 19  1  0  0  0  0
 21 20  2  0  0  0  0
 21 22  1  0  0  0  0
 22 17  2  0  0  0  0
 23  5  2  0  0  0  0
 23 24  1  0  0  0  0
 24 39  1  0  0  0  0
 25 24  2  0  0  0  0
 25 27  1  0  0  0  0
 26  2  1  0  0  0  0
 26 25  1  0  0  0  0
 27 37  2  0  0  0  0
 28 27  1  0  0  0  0
 28 35  2  0  0  0  0
 29 28  1  0  0  0  0
 30 61  1  0  0  0  0
 30 29  1  0  0  0  0
 31 29  2  0  0  0  0
 31 32  1  0  0  0  0
 32 34  2  0  0  0  0
 33 65  1  0  0  0  0
 33 32  1  0  0  0  0
 33 66  1  0  0  0  0
 34 35  1  0  0  0  0
 34 68  1  0  0  0  0
 35 36  1  0  0  0  0
 36 70  1  0  0  0  0
 36 71  1  0  0  0  0
 36 69  1  0  0  0  0
 37 72  1  0  0  0  0
 37 38  1  0  0  0  0
 38 43  1  0  0  0  0
 39 38  2  0  0  0  0
 39 40  1  0  0  0  0
 40 41  2  0  0  0  0
 41 42  1  0  0  0  0
 41 74  1  0  0  0  0
 42 75  1  0  0  0  0
 43 76  1  0  0  0  0
 43 42  2  0  0  0  0
 44  3  1  0  0  0  0
 45  9  1  0  0  0  0
 46  9  1  0  0  0  0
 47  9  1  0  0  0  0
 48 10  1  0  0  0  0
 49 12  1  0  0  0  0
 50 12  1  0  0  0  0
 53 15  1  0  0  0  0
 56 16  1  0  0  0  0
 58 20  1  0  0  0  0
 59 21  1  0  0  0  0
 60 22  1  0  0  0  0
 62 30  1  0  0  0  0
 63 30  1  0  0  0  0
 64 31  1  0  0  0  0
 67 33  1  0  0  0  0
 73 40  1  0  0  0  0
M  END
$$$$
