O=P1(O)OC2=C(C3=CC(COC)=CC=C3)C=C4C(CCCC4)=C2C5=C(O1)C(C6=CC=CC(COC)=C6)=CC7=C5CCCC7
 OpenBabel09032010383D

 80 86  0  0  0  0  0  0  0  0999 V2000
   -0.1115    3.0104   -1.6586 O   0  0  0  0  0  0  0  0  0  0  0  0
    0.5015    1.9866   -0.7534 P   0  0  0  0  0  0  0  0  0  0  0  0
    1.6355    2.5984    0.2123 O   0  0  0  0  0  0  0  0  0  0  0  0
   -0.5053    1.2809    0.2952 O   0  0  0  0  0  0  0  0  0  0  0  0
   -1.3254    0.2903   -0.1978 C   0  0  0  0  0  0  0  0  0  0  0  0
   -2.7080    0.5343   -0.2434 C   0  0  0  0  0  0  0  0  0  0  0  0
   -3.3153    1.7667    0.2764 C   0  0  0  0  0  0  0  0  0  0  0  0
   -4.0080    1.7564    1.4984 C   0  0  0  0  0  0  0  0  0  0  0  0
   -4.6173    2.9161    2.0051 C   0  0  0  0  0  0  0  0  0  0  0  0
   -5.3409    2.8827    3.3285 C   0  0  0  0  0  0  0  0  0  0  0  0
   -6.2416    1.7765    3.4229 O   0  0  0  0  0  0  0  0  0  0  0  0
   -7.4508    1.9949    2.7072 C   0  0  0  0  0  0  0  0  0  0  0  0
   -4.5114    4.1083    1.2794 C   0  0  0  0  0  0  0  0  0  0  0  0
   -3.8290    4.1339    0.0636 C   0  0  0  0  0  0  0  0  0  0  0  0
   -3.2415    2.9704   -0.4362 C   0  0  0  0  0  0  0  0  0  0  0  0
   -3.5264   -0.4552   -0.7962 C   0  0  0  0  0  0  0  0  0  0  0  0
   -2.9902   -1.6360   -1.3285 C   0  0  0  0  0  0  0  0  0  0  0  0
   -1.5967   -1.8646   -1.2613 C   0  0  0  0  0  0  0  0  0  0  0  0
   -1.0044   -3.0653   -1.9869 C   0  0  0  0  0  0  0  0  0  0  0  0
   -1.9362   -3.6760   -3.0329 C   0  0  0  0  0  0  0  0  0  0  0  0
   -3.3075   -3.9124   -2.4219 C   0  0  0  0  0  0  0  0  0  0  0  0
   -3.9378   -2.5811   -2.0312 C   0  0  0  0  0  0  0  0  0  0  0  0
   -0.7401   -0.9339   -0.5947 C   0  0  0  0  0  0  0  0  0  0  0  0
    0.6459   -1.1863   -0.3183 C   0  0  0  0  0  0  0  0  0  0  0  0
    1.6488   -0.3330   -0.8359 C   0  0  0  0  0  0  0  0  0  0  0  0
    1.2761    0.7992   -1.5257 O   0  0  0  0  0  0  0  0  0  0  0  0
    3.0279   -0.5814   -0.7018 C   0  0  0  0  0  0  0  0  0  0  0  0
    4.0534    0.3039   -1.2814 C   0  0  0  0  0  0  0  0  0  0  0  0
    4.1131    0.5390   -2.6632 C   0  0  0  0  0  0  0  0  0  0  0  0
    5.0863    1.3789   -3.2078 C   0  0  0  0  0  0  0  0  0  0  0  0
    6.0171    2.0016   -2.3783 C   0  0  0  0  0  0  0  0  0  0  0  0
    5.9797    1.7948   -0.9948 C   0  0  0  0  0  0  0  0  0  0  0  0
    6.9953    2.4553   -0.0944 C   0  0  0  0  0  0  0  0  0  0  0  0
    6.3970    2.9995    1.0837 O   0  0  0  0  0  0  0  0  0  0  0  0
    5.7646    4.2518    0.8430 C   0  0  0  0  0  0  0  0  0  0  0  0
    5.0037    0.9364   -0.4613 C   0  0  0  0  0  0  0  0  0  0  0  0
    3.4144   -1.7052    0.0339 C   0  0  0  0  0  0  0  0  0  0  0  0
    2.4720   -2.5331    0.6592 C   0  0  0  0  0  0  0  0  0  0  0  0
    1.0923   -2.2556    0.5204 C   0  0  0  0  0  0  0  0  0  0  0  0
    0.0911   -3.0480    1.3533 C   0  0  0  0  0  0  0  0  0  0  0  0
    0.7176   -3.7933    2.5310 C   0  0  0  0  0  0  0  0  0  0  0  0
    1.9167   -4.5929    2.0501 C   0  0  0  0  0  0  0  0  0  0  0  0
    2.9959   -3.6483    1.5363 C   0  0  0  0  0  0  0  0  0  0  0  0
    2.0670    1.9153    0.7538 H   0  0  0  0  0  0  0  0  0  0  0  0
   -4.0793    0.8298    2.0675 H   0  0  0  0  0  0  0  0  0  0  0  0
   -4.5950    2.7676    4.1231 H   0  0  0  0  0  0  0  0  0  0  0  0
   -5.8781    3.8184    3.5252 H   0  0  0  0  0  0  0  0  0  0  0  0
   -7.2599    2.1110    1.6365 H   0  0  0  0  0  0  0  0  0  0  0  0
   -8.0931    1.1214    2.8490 H   0  0  0  0  0  0  0  0  0  0  0  0
   -7.9731    2.8748    3.0951 H   0  0  0  0  0  0  0  0  0  0  0  0
   -4.9592    5.0260    1.6535 H   0  0  0  0  0  0  0  0  0  0  0  0
   -3.7487    5.0605   -0.4992 H   0  0  0  0  0  0  0  0  0  0  0  0
   -2.7201    3.0123   -1.3910 H   0  0  0  0  0  0  0  0  0  0  0  0
   -4.6010   -0.2818   -0.8543 H   0  0  0  0  0  0  0  0  0  0  0  0
   -0.0788   -2.7712   -2.4959 H   0  0  0  0  0  0  0  0  0  0  0  0
   -0.7551   -3.8470   -1.2675 H   0  0  0  0  0  0  0  0  0  0  0  0
   -2.0219   -3.0088   -3.8998 H   0  0  0  0  0  0  0  0  0  0  0  0
   -1.5146   -4.6210   -3.3934 H   0  0  0  0  0  0  0  0  0  0  0  0
   -3.2131   -4.5566   -1.5385 H   0  0  0  0  0  0  0  0  0  0  0  0
   -3.9578   -4.4351   -3.1322 H   0  0  0  0  0  0  0  0  0  0  0  0
   -4.8075   -2.7754   -1.3921 H   0  0  0  0  0  0  0  0  0  0  0  0
   -4.2998   -2.0807   -2.9387 H   0  0  0  0  0  0  0  0  0  0  0  0
    3.3943    0.0650   -3.3292 H   0  0  0  0  0  0  0  0  0  0  0  0
    5.1141    1.5488   -4.2813 H   0  0  0  0  0  0  0  0  0  0  0  0
    6.7677    2.6531   -2.8205 H   0  0  0  0  0  0  0  0  0  0  0  0
    7.7133    1.6917    0.2254 H   0  0  0  0  0  0  0  0  0  0  0  0
    7.5633    3.2330   -0.6192 H   0  0  0  0  0  0  0  0  0  0  0  0
    6.4928    4.9866    0.4862 H   0  0  0  0  0  0  0  0  0  0  0  0
    5.3467    4.6094    1.7880 H   0  0  0  0  0  0  0  0  0  0  0  0
    4.9481    4.1482    0.1224 H   0  0  0  0  0  0  0  0  0  0  0  0
    4.9823    0.7760    0.6163 H   0  0  0  0  0  0  0  0  0  0  0  0
    4.4757   -1.9258    0.1520 H   0  0  0  0  0  0  0  0  0  0  0  0
   -0.6742   -2.3743    1.7563 H   0  0  0  0  0  0  0  0  0  0  0  0
   -0.4090   -3.7859    0.7236 H   0  0  0  0  0  0  0  0  0  0  0  0
   -0.0262   -4.4606    2.9809 H   0  0  0  0  0  0  0  0  0  0  0  0
    1.0269   -3.0832    3.3082 H   0  0  0  0  0  0  0  0  0  0  0  0
    1.6081   -5.2799    1.2519 H   0  0  0  0  0  0  0  0  0  0  0  0
    2.3189   -5.2066    2.8638 H   0  0  0  0  0  0  0  0  0  0  0  0
    3.5025   -3.1896    2.3954 H   0  0  0  0  0  0  0  0  0  0  0  0
    3.7436   -4.2311    0.9849 H   0  0  0  0  0  0  0  0  0  0  0  0
  1  2  2  0  0  0  0
  2  3  1  0  0  0  0
  2  4  1  0  0  0  0
  3 44  1  0  0  0  0
  5  4  1  0  0  0  0
  6  5  1  0  0  0  0
  6  7  1  0  0  0  0
  7  8  2  0  0  0  0
  8  9  1  0  0  0  0
  8 45  1  0  0  0  0
  9 10  1  0  0  0  0
 10 11  1  0  0  0  0
 10 47  1  0  0  0  0
 10 46  1  0  0  0  0
 12 49  1  0  0  0  0
 12 50  1  0  0  0  0
 12 11  1  0  0  0  0
 13 51  1  0  0  0  0
 13  9  2  0  0  0  0
 14 13  1  0  0  0  0
 15 14  2  0  0  0  0
 15  7  1  0  0  0  0
 16  6  2  0  0  0  0
 17 18  2  0  0  0  0
 17 16  1  0  0  0  0
 18 23  1  0  0  0  0
 19 56  1  0  0  0  0
 19 18  1  0  0  0  0
 20 21  1  0  0  0  0
 20 19  1  0  0  0  0
 21 22  1  0  0  0  0
 21 59  1  0  0  0  0
 22 61  1  0  0  0  0
 22 17  1  0  0  0  0
 23 24  1  0  0  0  0
 23  5  2  0  0  0  0
 24 39  2  0  0  0  0
 25 27  2  0  0  0  0
 25 24  1  0  0  0  0
 26 25  1  0  0  0  0
 26  2  1  0  0  0  0
 27 37  1  0  0  0  0
 28 27  1  0  0  0  0
 28 36  2  0  0  0  0
 29 28  1  0  0  0  0
 30 29  2  0  0  0  0
 30 31  1  0  0  0  0
 31 32  2  0  0  0  0
 32 36  1  0  0  0  0
 32 33  1  0  0  0  0
 33 66  1  0  0  0  0
 33 34  1  0  0  0  0
 35 34  1  0  0  0  0
 35 69  1  0  0  0  0
 36 71  1  0  0  0  0
 37 72  1  0  0  0  0
 37 38  2  0  0  0  0
 38 43  1  0  0  0  0
 39 38  1  0  0  0  0
 39 40  1  0  0  0  0
 40 73  1  0  0  0  0
 40 41  1  0  0  0  0
 41 75  1  0  0  0  0
 41 76  1  0  0  0  0
 42 41  1  0  0  0  0
 42 78  1  0  0  0  0
 43 42  1  0  0  0  0
 43 79  1  0  0  0  0
 48 12  1  0  0  0  0
 52 14  1  0  0  0  0
 53 15  1  0  0  0  0
 54 16  1  0  0  0  0
 55 19  1  0  0  0  0
 57 20  1  0  0  0  0
 58 20  1  0  0  0  0
 60 21  1  0  0  0  0
 62 22  1  0  0  0  0
 63 29  1  0  0  0  0
 64 30  1  0  0  0  0
 65 31  1  0  0  0  0
 67 33  1  0  0  0  0
 68 35  1  0  0  0  0
 70 35  1  0  0  0  0
 74 40  1  0  0  0  0
 77 42  1  0  0  0  0
 80 43  1  0  0  0  0
M  END
$$$$
