O=P1(O)OC2=C(C3=C(C(C)C)C=C(C4=CC=C(C(C)(C)C)C=C4)C=C3C(C)C)C=C5C(C=CC=C5)=[C@]2[C@]6=C(O1)C(C7=C(C(C)C)C=C(C8=CC=C(C(C)(C)C)C=C8)C=C7C(C)C)=CC9=C6C=CC=C9
 OpenBabel09032010373D

138146  0  0  0  0  0  0  0  0999 V2000
   -0.4041    0.9608   -1.0026 O   0  0  0  0  0  0  0  0  0  0  0  0
   -0.0840   -0.3143   -0.2899 P   0  0  0  0  0  0  0  0  0  0  0  0
    0.2530   -0.0196    1.2532 O   0  0  0  0  0  0  0  0  0  0  0  0
    1.1972   -1.0979   -0.8563 O   0  0  0  0  0  0  0  0  0  0  0  0
    1.4475   -2.3975   -0.4829 C   0  0  0  0  0  0  0  0  0  0  0  0
    2.6949   -2.6346    0.1283 C   0  0  0  0  0  0  0  0  0  0  0  0
    3.6833   -1.5549    0.3521 C   0  0  0  0  0  0  0  0  0  0  0  0
    4.5044   -1.1087   -0.7237 C   0  0  0  0  0  0  0  0  0  0  0  0
    4.4209   -1.7129   -2.1282 C   0  0  0  0  0  0  0  0  0  0  0  0
    5.7496   -2.3548   -2.5440 C   0  0  0  0  0  0  0  0  0  0  0  0
    3.9681   -0.6776   -3.1631 C   0  0  0  0  0  0  0  0  0  0  0  0
    5.4340   -0.0730   -0.4970 C   0  0  0  0  0  0  0  0  0  0  0  0
    5.5960    0.5219    0.7573 C   0  0  0  0  0  0  0  0  0  0  0  0
    6.5645    1.6092    0.9600 C   0  0  0  0  0  0  0  0  0  0  0  0
    6.1613    2.8474    1.4753 C   0  0  0  0  0  0  0  0  0  0  0  0
    7.0769    3.8920    1.6618 C   0  0  0  0  0  0  0  0  0  0  0  0
    8.4342    3.7382    1.3421 C   0  0  0  0  0  0  0  0  0  0  0  0
    9.4677    4.8614    1.5339 C   0  0  0  0  0  0  0  0  0  0  0  0
    8.8724    6.1661    2.1099 C   0  0  0  0  0  0  0  0  0  0  0  0
   10.1099    5.2137    0.1747 C   0  0  0  0  0  0  0  0  0  0  0  0
   10.5688    4.3926    2.5095 C   0  0  0  0  0  0  0  0  0  0  0  0
    8.8315    2.4913    0.8252 C   0  0  0  0  0  0  0  0  0  0  0  0
    7.9161    1.4484    0.6373 C   0  0  0  0  0  0  0  0  0  0  0  0
    4.8031    0.0550    1.8110 C   0  0  0  0  0  0  0  0  0  0  0  0
    3.8383   -0.9597    1.6377 C   0  0  0  0  0  0  0  0  0  0  0  0
    3.0139   -1.4047    2.8489 C   0  0  0  0  0  0  0  0  0  0  0  0
    3.8237   -2.3649    3.7264 C   0  0  0  0  0  0  0  0  0  0  0  0
    2.4991   -0.2365    3.7037 C   0  0  0  0  0  0  0  0  0  0  0  0
    3.0206   -3.9471    0.4750 C   0  0  0  0  0  0  0  0  0  0  0  0
    2.1227   -4.9955    0.2724 C   0  0  0  0  0  0  0  0  0  0  0  0
    0.8749   -4.7520   -0.3603 C   0  0  0  0  0  0  0  0  0  0  0  0
   -0.0069   -5.8605   -0.4447 C   0  0  0  0  0  0  0  0  0  0  0  0
    0.3420   -7.1377    0.0031 C   0  0  0  0  0  0  0  0  0  0  0  0
    1.5869   -7.3526    0.5710 C   0  0  0  0  0  0  0  0  0  0  0  0
    2.4689   -6.2854    0.7097 C   0  0  0  0  0  0  0  0  0  0  0  0
    0.5419   -3.4312   -0.8360 C   0  0  0  0  0  0  0  0  0  0  0  0
   -0.6250   -3.1578   -1.6558 C   0  0  0  0  0  0  0  0  0  0  0  0
   -1.5486   -2.1583   -1.2738 C   0  0  0  0  0  0  0  0  0  0  0  0
   -1.2778   -1.3826   -0.1737 O   0  0  0  0  0  0  0  0  0  0  0  0
   -2.7990   -1.9676   -1.8911 C   0  0  0  0  0  0  0  0  0  0  0  0
   -3.7833   -0.9921   -1.3733 C   0  0  0  0  0  0  0  0  0  0  0  0
   -4.5848   -1.3255   -0.2436 C   0  0  0  0  0  0  0  0  0  0  0  0
   -4.5157   -2.6940    0.4396 C   0  0  0  0  0  0  0  0  0  0  0  0
   -5.8601   -3.4271    0.3667 C   0  0  0  0  0  0  0  0  0  0  0  0
   -4.0355   -2.5785    1.8901 C   0  0  0  0  0  0  0  0  0  0  0  0
   -5.4805   -0.3667    0.2713 C   0  0  0  0  0  0  0  0  0  0  0  0
   -5.6268    0.9000   -0.3013 C   0  0  0  0  0  0  0  0  0  0  0  0
   -6.5451    1.8917    0.2777 C   0  0  0  0  0  0  0  0  0  0  0  0
   -7.5280    2.5149   -0.4992 C   0  0  0  0  0  0  0  0  0  0  0  0
   -8.3937    3.4689    0.0527 C   0  0  0  0  0  0  0  0  0  0  0  0
   -8.3106    3.8380    1.4039 C   0  0  0  0  0  0  0  0  0  0  0  0
   -9.2433    4.8821    2.0415 C   0  0  0  0  0  0  0  0  0  0  0  0
  -10.0350    4.2340    3.1979 C   0  0  0  0  0  0  0  0  0  0  0  0
  -10.2763    5.4794    1.0593 C   0  0  0  0  0  0  0  0  0  0  0  0
   -8.4070    6.0564    2.5942 C   0  0  0  0  0  0  0  0  0  0  0  0
   -7.3208    3.2072    2.1786 C   0  0  0  0  0  0  0  0  0  0  0  0
   -6.4571    2.2539    1.6273 C   0  0  0  0  0  0  0  0  0  0  0  0
   -4.8629    1.1984   -1.4350 C   0  0  0  0  0  0  0  0  0  0  0  0
   -3.9327    0.2890   -1.9798 C   0  0  0  0  0  0  0  0  0  0  0  0
   -3.1331    0.7056   -3.2187 C   0  0  0  0  0  0  0  0  0  0  0  0
   -2.6434    2.1618   -3.1870 C   0  0  0  0  0  0  0  0  0  0  0  0
   -3.9610    0.4788   -4.4883 C   0  0  0  0  0  0  0  0  0  0  0  0
   -3.1173   -2.7694   -2.9871 C   0  0  0  0  0  0  0  0  0  0  0  0
   -2.2037   -3.6939   -3.4973 C   0  0  0  0  0  0  0  0  0  0  0  0
   -0.9490   -3.8851   -2.8580 C   0  0  0  0  0  0  0  0  0  0  0  0
   -0.0520   -4.7804   -3.4938 C   0  0  0  0  0  0  0  0  0  0  0  0
   -0.3908   -5.4893   -4.6492 C   0  0  0  0  0  0  0  0  0  0  0  0
   -1.6401   -5.3165   -5.2227 C   0  0  0  0  0  0  0  0  0  0  0  0
   -2.5386   -4.4200   -4.6521 C   0  0  0  0  0  0  0  0  0  0  0  0
   -0.1965    0.8025    1.5217 H   0  0  0  0  0  0  0  0  0  0  0  0
    3.6820   -2.5186   -2.1547 H   0  0  0  0  0  0  0  0  0  0  0  0
    6.0704   -3.0997   -1.8071 H   0  0  0  0  0  0  0  0  0  0  0  0
    5.6442   -2.8625   -3.5091 H   0  0  0  0  0  0  0  0  0  0  0  0
    6.5524   -1.6170   -2.6462 H   0  0  0  0  0  0  0  0  0  0  0  0
    3.8255   -1.1508   -4.1409 H   0  0  0  0  0  0  0  0  0  0  0  0
    3.0169   -0.2198   -2.8713 H   0  0  0  0  0  0  0  0  0  0  0  0
    4.7005    0.1267   -3.2901 H   0  0  0  0  0  0  0  0  0  0  0  0
    6.0431    0.2886   -1.3244 H   0  0  0  0  0  0  0  0  0  0  0  0
    5.1154    3.0169    1.7252 H   0  0  0  0  0  0  0  0  0  0  0  0
    6.6890    4.8250    2.0607 H   0  0  0  0  0  0  0  0  0  0  0  0
    9.6458    6.9345    2.2289 H   0  0  0  0  0  0  0  0  0  0  0  0
    8.1026    6.5839    1.4506 H   0  0  0  0  0  0  0  0  0  0  0  0
    8.4252    6.0041    3.0976 H   0  0  0  0  0  0  0  0  0  0  0  0
   10.6545    4.3675   -0.2583 H   0  0  0  0  0  0  0  0  0  0  0  0
   10.8267    6.0369    0.2777 H   0  0  0  0  0  0  0  0  0  0  0  0
    9.3496    5.5225   -0.5525 H   0  0  0  0  0  0  0  0  0  0  0  0
   10.1416    4.1050    3.4776 H   0  0  0  0  0  0  0  0  0  0  0  0
   11.1231    3.5293    2.1253 H   0  0  0  0  0  0  0  0  0  0  0  0
   11.3009    5.1882    2.6911 H   0  0  0  0  0  0  0  0  0  0  0  0
    9.8703    2.3086    0.5589 H   0  0  0  0  0  0  0  0  0  0  0  0
    8.2746    0.5002    0.2420 H   0  0  0  0  0  0  0  0  0  0  0  0
    4.9521    0.4929    2.7962 H   0  0  0  0  0  0  0  0  0  0  0  0
    2.1180   -1.9327    2.5054 H   0  0  0  0  0  0  0  0  0  0  0  0
    4.1703   -3.2338    3.1590 H   0  0  0  0  0  0  0  0  0  0  0  0
    3.2148   -2.7325    4.5594 H   0  0  0  0  0  0  0  0  0  0  0  0
    4.7085   -1.8752    4.1490 H   0  0  0  0  0  0  0  0  0  0  0  0
    2.0246    0.5334    3.0878 H   0  0  0  0  0  0  0  0  0  0  0  0
    3.3000    0.2421    4.2773 H   0  0  0  0  0  0  0  0  0  0  0  0
    1.7573   -0.5950    4.4262 H   0  0  0  0  0  0  0  0  0  0  0  0
    3.9913   -4.1425    0.9286 H   0  0  0  0  0  0  0  0  0  0  0  0
   -1.0068   -5.7405   -0.8584 H   0  0  0  0  0  0  0  0  0  0  0  0
   -0.3658   -7.9570   -0.0917 H   0  0  0  0  0  0  0  0  0  0  0  0
    1.8665   -8.3426    0.9206 H   0  0  0  0  0  0  0  0  0  0  0  0
    3.4337   -6.4679    1.1799 H   0  0  0  0  0  0  0  0  0  0  0  0
   -3.7975   -3.3408   -0.0722 H   0  0  0  0  0  0  0  0  0  0  0  0
   -5.7670   -4.4392    0.7756 H   0  0  0  0  0  0  0  0  0  0  0  0
   -6.6435   -2.9137    0.9340 H   0  0  0  0  0  0  0  0  0  0  0  0
   -6.2005   -3.5153   -0.6711 H   0  0  0  0  0  0  0  0  0  0  0  0
   -3.9049   -3.5731    2.3305 H   0  0  0  0  0  0  0  0  0  0  0  0
   -4.7463   -2.0309    2.5180 H   0  0  0  0  0  0  0  0  0  0  0  0
   -3.0726   -2.0594    1.9455 H   0  0  0  0  0  0  0  0  0  0  0  0
   -6.0894   -0.6166    1.1390 H   0  0  0  0  0  0  0  0  0  0  0  0
   -7.6371    2.2556   -1.5506 H   0  0  0  0  0  0  0  0  0  0  0  0
   -9.1329    3.9089   -0.6107 H   0  0  0  0  0  0  0  0  0  0  0  0
  -10.7339    4.9487    3.6478 H   0  0  0  0  0  0  0  0  0  0  0  0
   -9.3798    3.8785    4.0007 H   0  0  0  0  0  0  0  0  0  0  0  0
  -10.6177    3.3751    2.8442 H   0  0  0  0  0  0  0  0  0  0  0  0
  -10.9358    4.7063    0.6479 H   0  0  0  0  0  0  0  0  0  0  0  0
  -10.9166    6.2162    1.5591 H   0  0  0  0  0  0  0  0  0  0  0  0
   -9.7879    5.9926    0.2227 H   0  0  0  0  0  0  0  0  0  0  0  0
   -9.0510    6.8325    3.0242 H   0  0  0  0  0  0  0  0  0  0  0  0
   -7.8079    6.5212    1.8021 H   0  0  0  0  0  0  0  0  0  0  0  0
   -7.7177    5.7387    3.3842 H   0  0  0  0  0  0  0  0  0  0  0  0
   -7.2007    3.4513    3.2317 H   0  0  0  0  0  0  0  0  0  0  0  0
   -5.6986    1.8044    2.2652 H   0  0  0  0  0  0  0  0  0  0  0  0
   -4.9850    2.1791   -1.8905 H   0  0  0  0  0  0  0  0  0  0  0  0
   -2.2269    0.0939   -3.2860 H   0  0  0  0  0  0  0  0  0  0  0  0
   -1.9091    2.3306   -3.9827 H   0  0  0  0  0  0  0  0  0  0  0  0
   -3.4582    2.8760   -3.3474 H   0  0  0  0  0  0  0  0  0  0  0  0
   -2.1684    2.4076   -2.2329 H   0  0  0  0  0  0  0  0  0  0  0  0
   -4.2915   -0.5600   -4.5764 H   0  0  0  0  0  0  0  0  0  0  0  0
   -4.8578    1.1089   -4.5005 H   0  0  0  0  0  0  0  0  0  0  0  0
   -3.3721    0.7171   -5.3807 H   0  0  0  0  0  0  0  0  0  0  0  0
   -4.0912   -2.6493   -3.4592 H   0  0  0  0  0  0  0  0  0  0  0  0
    0.9507   -4.9319   -3.0972 H   0  0  0  0  0  0  0  0  0  0  0  0
    0.3286   -6.1698   -5.0970 H   0  0  0  0  0  0  0  0  0  0  0  0
   -1.9104   -5.8635   -6.1213 H   0  0  0  0  0  0  0  0  0  0  0  0
   -3.5063   -4.2799   -5.1307 H   0  0  0  0  0  0  0  0  0  0  0  0
  1  2  2  0  0  0  0
  2 39  1  0  0  0  0
  2  3  1  0  0  0  0
  3 70  1  0  0  0  0
  4  5  1  0  0  0  0
  4  2  1  0  0  0  0
  5  6  1  0  0  0  0
  6  7  1  0  0  0  0
  6 29  2  0  0  0  0
  7 25  2  0  0  0  0
  8 12  2  0  0  0  0
  8  7  1  0  0  0  0
  9  8  1  0  0  0  0
 10  9  1  0  0  0  0
 10 72  1  0  0  0  0
 11 76  1  0  0  0  0
 11  9  1  0  0  0  0
 12 13  1  0  0  0  0
 13 14  1  0  0  0  0
 13 24  2  0  0  0  0
 14 15  2  0  0  0  0
 15 16  1  0  0  0  0
 15 79  1  0  0  0  0
 16 80  1  0  0  0  0
 17 18  1  0  0  0  0
 17 16  2  0  0  0  0
 18 19  1  0  0  0  0
 18 21  1  0  0  0  0
 19 81  1  0  0  0  0
 19 83  1  0  0  0  0
 20 85  1  0  0  0  0
 20 18  1  0  0  0  0
 21 89  1  0  0  0  0
 21 87  1  0  0  0  0
 22 17  1  0  0  0  0
 23 22  2  0  0  0  0
 23 14  1  0  0  0  0
 24 92  1  0  0  0  0
 25 24  1  0  0  0  0
 25 26  1  0  0  0  0
 26 28  1  0  0  0  0
 26 27  1  0  0  0  0
 27 96  1  0  0  0  0
 27 95  1  0  0  0  0
 28 98  1  0  0  0  0
 28 99  1  0  0  0  0
 29100  1  0  0  0  0
 30 29  1  0  0  0  0
 30 35  2  0  0  0  0
 31 30  1  0  0  0  0
 32 31  2  0  0  0  0
 32 33  1  0  0  0  0
 33 34  2  0  0  0  0
 34 35  1  0  0  0  0
 34103  1  0  0  0  0
 35104  1  0  0  0  0
 36  5  2  0  0  0  0
 36 31  1  0  0  0  0
 37 38  1  0  0  0  0
 37 36  1  0  0  0  0
 38 39  1  0  0  0  0
 40 41  1  0  0  0  0
 40 38  2  0  0  0  0
 41 42  2  0  0  0  0
 42 46  1  0  0  0  0
 42 43  1  0  0  0  0
 43 45  1  0  0  0  0
 44 43  1  0  0  0  0
 44106  1  0  0  0  0
 44107  1  0  0  0  0
 45111  1  0  0  0  0
 45109  1  0  0  0  0
 45110  1  0  0  0  0
 46112  1  0  0  0  0
 47 46  2  0  0  0  0
 47 48  1  0  0  0  0
 48 57  2  0  0  0  0
 49 50  2  0  0  0  0
 49 48  1  0  0  0  0
 50 51  1  0  0  0  0
 51 52  1  0  0  0  0
 51 56  2  0  0  0  0
 52 55  1  0  0  0  0
 52 53  1  0  0  0  0
 53115  1  0  0  0  0
 53116  1  0  0  0  0
 54119  1  0  0  0  0
 54 52  1  0  0  0  0
 55121  1  0  0  0  0
 55123  1  0  0  0  0
 56124  1  0  0  0  0
 57 56  1  0  0  0  0
 57125  1  0  0  0  0
 58 47  1  0  0  0  0
 59 58  2  0  0  0  0
 59 41  1  0  0  0  0
 60 61  1  0  0  0  0
 60 59  1  0  0  0  0
 61130  1  0  0  0  0
 62 60  1  0  0  0  0
 63 40  1  0  0  0  0
 64 63  2  0  0  0  0
 64 65  1  0  0  0  0
 65 37  2  0  0  0  0
 66135  1  0  0  0  0
 66 65  1  0  0  0  0
 67 66  2  0  0  0  0
 68 69  2  0  0  0  0
 68 67  1  0  0  0  0
 69 64  1  0  0  0  0
 71  9  1  0  0  0  0
 73 10  1  0  0  0  0
 74 10  1  0  0  0  0
 75 11  1  0  0  0  0
 77 11  1  0  0  0  0
 78 12  1  0  0  0  0
 82 19  1  0  0  0  0
 84 20  1  0  0  0  0
 86 20  1  0  0  0  0
 88 21  1  0  0  0  0
 90 22  1  0  0  0  0
 91 23  1  0  0  0  0
 93 26  1  0  0  0  0
 94 27  1  0  0  0  0
 97 28  1  0  0  0  0
101 32  1  0  0  0  0
102 33  1  0  0  0  0
105 43  1  0  0  0  0
108 44  1  0  0  0  0
113 49  1  0  0  0  0
114 50  1  0  0  0  0
117 53  1  0  0  0  0
118 54  1  0  0  0  0
120 54  1  0  0  0  0
122 55  1  0  0  0  0
126 58  1  0  0  0  0
127 60  1  0  0  0  0
128 61  1  0  0  0  0
129 61  1  0  0  0  0
131 62  1  0  0  0  0
132 62  1  0  0  0  0
133 62  1  0  0  0  0
134 63  1  0  0  0  0
136 67  1  0  0  0  0
137 68  1  0  0  0  0
138 69  1  0  0  0  0
M  END
$$$$
