O=P1(O)OC2=C(C3=C(C4CCCCC4)C=C(C5CCCCC5)C=C3C6CCCCC6)C=C7C(C=CC=C7)=C2C8=C(O1)[C@@]([C@@]9=C(C%10CCCCC%10)C=C(C%11CCCCC%11)C=C9C%12CCCCC%12)=CC%13=C8C=CC=C%13
 OpenBabel09032010373D

154166  0  0  0  0  0  0  0  0999 V2000
    0.4309   -1.8448   -0.3996 O   0  0  0  0  0  0  0  0  0  0  0  0
   -0.0127   -0.5331    0.1651 P   0  0  0  0  0  0  0  0  0  0  0  0
   -0.8702   -0.7412    1.5081 O   0  0  0  0  0  0  0  0  0  0  0  0
    1.1402    0.4934    0.6165 O   0  0  0  0  0  0  0  0  0  0  0  0
    1.7530    1.2388   -0.3637 C   0  0  0  0  0  0  0  0  0  0  0  0
    3.1189    0.9931   -0.5931 C   0  0  0  0  0  0  0  0  0  0  0  0
    3.8904    0.0015    0.1876 C   0  0  0  0  0  0  0  0  0  0  0  0
    4.3856    0.3424    1.4795 C   0  0  0  0  0  0  0  0  0  0  0  0
    4.1389    1.7120    2.1175 C   0  0  0  0  0  0  0  0  0  0  0  0
    5.4442    2.4364    2.4881 C   0  0  0  0  0  0  0  0  0  0  0  0
    5.1767    3.8730    2.9491 C   0  0  0  0  0  0  0  0  0  0  0  0
    3.8251    4.0515    3.6440 C   0  0  0  0  0  0  0  0  0  0  0  0
    3.3636    2.7715    4.3271 C   0  0  0  0  0  0  0  0  0  0  0  0
    3.1901    1.6195    3.3324 C   0  0  0  0  0  0  0  0  0  0  0  0
    5.1330   -0.6075    2.2050 C   0  0  0  0  0  0  0  0  0  0  0  0
    5.4248   -1.8708    1.6864 C   0  0  0  0  0  0  0  0  0  0  0  0
    6.2407   -2.8568    2.5037 C   0  0  0  0  0  0  0  0  0  0  0  0
    5.4387   -4.1281    2.8337 C   0  0  0  0  0  0  0  0  0  0  0  0
    6.2651   -5.1099    3.6627 C   0  0  0  0  0  0  0  0  0  0  0  0
    7.5874   -5.4488    2.9806 C   0  0  0  0  0  0  0  0  0  0  0  0
    8.3884   -4.1932    2.6486 C   0  0  0  0  0  0  0  0  0  0  0  0
    7.5715   -3.2073    1.8152 C   0  0  0  0  0  0  0  0  0  0  0  0
    4.9472   -2.1890    0.4120 C   0  0  0  0  0  0  0  0  0  0  0  0
    4.1738   -1.2877   -0.3474 C   0  0  0  0  0  0  0  0  0  0  0  0
    3.6965   -1.7238   -1.7388 C   0  0  0  0  0  0  0  0  0  0  0  0
    3.0475   -3.1315   -1.7756 C   0  0  0  0  0  0  0  0  0  0  0  0
    3.9073   -4.1807   -2.4760 C   0  0  0  0  0  0  0  0  0  0  0  0
    4.2621   -3.7737   -3.9052 C   0  0  0  0  0  0  0  0  0  0  0  0
    4.4903   -2.2722   -4.0771 C   0  0  0  0  0  0  0  0  0  0  0  0
    4.8434   -1.5879   -2.7621 C   0  0  0  0  0  0  0  0  0  0  0  0
    3.7705    1.7596   -1.5621 C   0  0  0  0  0  0  0  0  0  0  0  0
    3.0838    2.7067   -2.3235 C   0  0  0  0  0  0  0  0  0  0  0  0
    1.7088    2.9574   -2.0746 C   0  0  0  0  0  0  0  0  0  0  0  0
    1.0715    3.8726   -2.9512 C   0  0  0  0  0  0  0  0  0  0  0  0
    1.7580    4.5456   -3.9657 C   0  0  0  0  0  0  0  0  0  0  0  0
    3.1111    4.3149   -4.1526 C   0  0  0  0  0  0  0  0  0  0  0  0
    3.7678    3.3962   -3.3391 C   0  0  0  0  0  0  0  0  0  0  0  0
    1.0235    2.2668   -1.0095 C   0  0  0  0  0  0  0  0  0  0  0  0
   -0.3164    2.6023   -0.5674 C   0  0  0  0  0  0  0  0  0  0  0  0
   -1.3196    1.6056   -0.4726 C   0  0  0  0  0  0  0  0  0  0  0  0
   -1.0108    0.3009   -0.7787 O   0  0  0  0  0  0  0  0  0  0  0  0
   -2.6745    1.8823   -0.2026 C   0  0  0  0  0  0  0  0  0  0  0  0
   -3.7142    0.8256   -0.1632 C   0  0  0  0  0  0  0  0  0  0  0  0
   -4.2557    0.3847    1.0843 C   0  0  0  0  0  0  0  0  0  0  0  0
   -3.8107    0.9849    2.4267 C   0  0  0  0  0  0  0  0  0  0  0  0
   -3.5603   -0.0563    3.5451 C   0  0  0  0  0  0  0  0  0  0  0  0
   -3.4537    0.6261    4.9047 C   0  0  0  0  0  0  0  0  0  0  0  0
   -4.7549    1.3304    5.2898 C   0  0  0  0  0  0  0  0  0  0  0  0
   -5.6211    1.7113    4.0894 C   0  0  0  0  0  0  0  0  0  0  0  0
   -4.7810    2.1034    2.8782 C   0  0  0  0  0  0  0  0  0  0  0  0
   -5.2865   -0.5772    1.0821 C   0  0  0  0  0  0  0  0  0  0  0  0
   -5.7704   -1.1458   -0.0992 C   0  0  0  0  0  0  0  0  0  0  0  0
   -6.8735   -2.1912   -0.0451 C   0  0  0  0  0  0  0  0  0  0  0  0
   -8.1354   -1.7783   -0.8363 C   0  0  0  0  0  0  0  0  0  0  0  0
   -8.3178   -2.5703   -2.1279 C   0  0  0  0  0  0  0  0  0  0  0  0
   -8.3712   -4.0779   -1.8796 C   0  0  0  0  0  0  0  0  0  0  0  0
   -7.4851   -4.5452   -0.7243 C   0  0  0  0  0  0  0  0  0  0  0  0
   -6.3394   -3.5782   -0.4523 C   0  0  0  0  0  0  0  0  0  0  0  0
   -5.2220   -0.7198   -1.3102 C   0  0  0  0  0  0  0  0  0  0  0  0
   -4.2166    0.2656   -1.3731 C   0  0  0  0  0  0  0  0  0  0  0  0
   -3.7401    0.7206   -2.7583 C   0  0  0  0  0  0  0  0  0  0  0  0
   -4.8725    1.3887   -3.5762 C   0  0  0  0  0  0  0  0  0  0  0  0
   -5.3291    0.5525   -4.7680 C   0  0  0  0  0  0  0  0  0  0  0  0
   -4.1754    0.2052   -5.7083 C   0  0  0  0  0  0  0  0  0  0  0  0
   -2.8474   -0.0436   -4.9922 C   0  0  0  0  0  0  0  0  0  0  0  0
   -3.0433   -0.4207   -3.5286 C   0  0  0  0  0  0  0  0  0  0  0  0
   -3.0390    3.2131    0.0129 C   0  0  0  0  0  0  0  0  0  0  0  0
   -2.0867    4.2330    0.0422 C   0  0  0  0  0  0  0  0  0  0  0  0
   -0.7215    3.9414   -0.2173 C   0  0  0  0  0  0  0  0  0  0  0  0
    0.1871    5.0201   -0.0627 C   0  0  0  0  0  0  0  0  0  0  0  0
   -0.2283    6.3150    0.2586 C   0  0  0  0  0  0  0  0  0  0  0  0
   -1.5740    6.5774    0.4548 C   0  0  0  0  0  0  0  0  0  0  0  0
   -2.4963    5.5405    0.3526 C   0  0  0  0  0  0  0  0  0  0  0  0
   -1.4797   -1.4928    1.3946 H   0  0  0  0  0  0  0  0  0  0  0  0
    3.6486    2.3682    1.3906 H   0  0  0  0  0  0  0  0  0  0  0  0
    5.9616    1.9020    3.2950 H   0  0  0  0  0  0  0  0  0  0  0  0
    6.1368    2.4531    1.6375 H   0  0  0  0  0  0  0  0  0  0  0  0
    5.9847    4.1810    3.6238 H   0  0  0  0  0  0  0  0  0  0  0  0
    5.2217    4.5527    2.0894 H   0  0  0  0  0  0  0  0  0  0  0  0
    3.0731    4.3547    2.9043 H   0  0  0  0  0  0  0  0  0  0  0  0
    3.8915    4.8682    4.3716 H   0  0  0  0  0  0  0  0  0  0  0  0
    2.4194    2.9435    4.8564 H   0  0  0  0  0  0  0  0  0  0  0  0
    4.1004    2.4851    5.0882 H   0  0  0  0  0  0  0  0  0  0  0  0
    2.1557    1.6136    2.9655 H   0  0  0  0  0  0  0  0  0  0  0  0
    3.3116    0.6762    3.8785 H   0  0  0  0  0  0  0  0  0  0  0  0
    5.4938   -0.3520    3.1995 H   0  0  0  0  0  0  0  0  0  0  0  0
    6.4915   -2.3787    3.4617 H   0  0  0  0  0  0  0  0  0  0  0  0
    5.1129   -4.6303    1.9140 H   0  0  0  0  0  0  0  0  0  0  0  0
    4.5273   -3.8652    3.3850 H   0  0  0  0  0  0  0  0  0  0  0  0
    5.6896   -6.0278    3.8273 H   0  0  0  0  0  0  0  0  0  0  0  0
    6.4640   -4.6763    4.6505 H   0  0  0  0  0  0  0  0  0  0  0  0
    7.3889   -6.0090    2.0585 H   0  0  0  0  0  0  0  0  0  0  0  0
    8.1799   -6.1027    3.6303 H   0  0  0  0  0  0  0  0  0  0  0  0
    8.7085   -3.7074    3.5786 H   0  0  0  0  0  0  0  0  0  0  0  0
    9.2981   -4.4699    2.1039 H   0  0  0  0  0  0  0  0  0  0  0  0
    8.1606   -2.2966    1.6501 H   0  0  0  0  0  0  0  0  0  0  0  0
    7.3918   -3.6462    0.8257 H   0  0  0  0  0  0  0  0  0  0  0  0
    5.1798   -3.1671   -0.0006 H   0  0  0  0  0  0  0  0  0  0  0  0
    2.8939   -1.0473   -2.0557 H   0  0  0  0  0  0  0  0  0  0  0  0
    2.7728   -3.4797   -0.7731 H   0  0  0  0  0  0  0  0  0  0  0  0
    2.1036   -3.0584   -2.3333 H   0  0  0  0  0  0  0  0  0  0  0  0
    3.3837   -5.1436   -2.4910 H   0  0  0  0  0  0  0  0  0  0  0  0
    4.8305   -4.3435   -1.9086 H   0  0  0  0  0  0  0  0  0  0  0  0
    5.1606   -4.3223   -4.2130 H   0  0  0  0  0  0  0  0  0  0  0  0
    3.4652   -4.0892   -4.5897 H   0  0  0  0  0  0  0  0  0  0  0  0
    5.2819   -2.1032   -4.8160 H   0  0  0  0  0  0  0  0  0  0  0  0
    3.5818   -1.8127   -4.4870 H   0  0  0  0  0  0  0  0  0  0  0  0
    5.0553   -0.5294   -2.9494 H   0  0  0  0  0  0  0  0  0  0  0  0
    5.7743   -2.0195   -2.3718 H   0  0  0  0  0  0  0  0  0  0  0  0
    4.8329    1.5902   -1.7338 H   0  0  0  0  0  0  0  0  0  0  0  0
    0.0043    4.0690   -2.8622 H   0  0  0  0  0  0  0  0  0  0  0  0
    1.2267    5.2433   -4.6074 H   0  0  0  0  0  0  0  0  0  0  0  0
    3.6526    4.8336   -4.9387 H   0  0  0  0  0  0  0  0  0  0  0  0
    4.8257    3.2097   -3.5159 H   0  0  0  0  0  0  0  0  0  0  0  0
   -2.8342    1.4612    2.2767 H   0  0  0  0  0  0  0  0  0  0  0  0
   -2.6374   -0.6072    3.3391 H   0  0  0  0  0  0  0  0  0  0  0  0
   -4.3512   -0.8108    3.6037 H   0  0  0  0  0  0  0  0  0  0  0  0
   -2.6370    1.3586    4.8775 H   0  0  0  0  0  0  0  0  0  0  0  0
   -3.1886   -0.1049    5.6770 H   0  0  0  0  0  0  0  0  0  0  0  0
   -5.3424    0.6864    5.9553 H   0  0  0  0  0  0  0  0  0  0  0  0
   -4.5108    2.2273    5.8720 H   0  0  0  0  0  0  0  0  0  0  0  0
   -6.2878    2.5356    4.3676 H   0  0  0  0  0  0  0  0  0  0  0  0
   -6.2690    0.8670    3.8238 H   0  0  0  0  0  0  0  0  0  0  0  0
   -5.4438    2.4184    2.0633 H   0  0  0  0  0  0  0  0  0  0  0  0
   -4.1901    2.9897    3.1466 H   0  0  0  0  0  0  0  0  0  0  0  0
   -5.7432   -0.8799    2.0215 H   0  0  0  0  0  0  0  0  0  0  0  0
   -7.1961   -2.2709    1.0033 H   0  0  0  0  0  0  0  0  0  0  0  0
   -9.0149   -1.9632   -0.2043 H   0  0  0  0  0  0  0  0  0  0  0  0
   -8.1439   -0.7030   -1.0518 H   0  0  0  0  0  0  0  0  0  0  0  0
   -9.2354   -2.2521   -2.6362 H   0  0  0  0  0  0  0  0  0  0  0  0
   -7.4943   -2.3469   -2.8159 H   0  0  0  0  0  0  0  0  0  0  0  0
   -9.4046   -4.3836   -1.6755 H   0  0  0  0  0  0  0  0  0  0  0  0
   -8.0792   -4.5946   -2.8020 H   0  0  0  0  0  0  0  0  0  0  0  0
   -8.0950   -4.6424    0.1829 H   0  0  0  0  0  0  0  0  0  0  0  0
   -7.0936   -5.5453   -0.9423 H   0  0  0  0  0  0  0  0  0  0  0  0
   -5.7004   -3.9738    0.3471 H   0  0  0  0  0  0  0  0  0  0  0  0
   -5.7064   -3.5174   -1.3468 H   0  0  0  0  0  0  0  0  0  0  0  0
   -5.5983   -1.1506   -2.2341 H   0  0  0  0  0  0  0  0  0  0  0  0
   -2.9869    1.5059   -2.6393 H   0  0  0  0  0  0  0  0  0  0  0  0
   -4.4987    2.3467   -3.9634 H   0  0  0  0  0  0  0  0  0  0  0  0
   -5.7335    1.6410   -2.9455 H   0  0  0  0  0  0  0  0  0  0  0  0
   -6.1049    1.0892   -5.3262 H   0  0  0  0  0  0  0  0  0  0  0  0
   -5.7955   -0.3730   -4.4108 H   0  0  0  0  0  0  0  0  0  0  0  0
   -4.0355    1.0130   -6.4371 H   0  0  0  0  0  0  0  0  0  0  0  0
   -4.4534   -0.6822   -6.2899 H   0  0  0  0  0  0  0  0  0  0  0  0
   -2.2306    0.8624   -5.0492 H   0  0  0  0  0  0  0  0  0  0  0  0
   -2.2896   -0.8295   -5.5142 H   0  0  0  0  0  0  0  0  0  0  0  0
   -3.6155   -1.3549   -3.4777 H   0  0  0  0  0  0  0  0  0  0  0  0
   -2.0709   -0.6366   -3.0711 H   0  0  0  0  0  0  0  0  0  0  0  0
   -4.0874    3.4453    0.1957 H   0  0  0  0  0  0  0  0  0  0  0  0
    1.2579    4.8608   -0.1782 H   0  0  0  0  0  0  0  0  0  0  0  0
    0.5062    7.1096    0.3590 H   0  0  0  0  0  0  0  0  0  0  0  0
   -1.9060    7.5804    0.7062 H   0  0  0  0  0  0  0  0  0  0  0  0
   -3.5463    5.7605    0.5370 H   0  0  0  0  0  0  0  0  0  0  0  0
  1  2  2  0  0  0  0
  2  4  1  0  0  0  0
  2  3  1  0  0  0  0
  5  4  1  0  0  0  0
  6  5  1  0  0  0  0
  6  7  1  0  0  0  0
  7  8  1  0  0  0  0
  8  9  1  0  0  0  0
  8 15  2  0  0  0  0
  9 10  1  0  0  0  0
  9 14  1  0  0  0  0
 10 11  1  0  0  0  0
 10 76  1  0  0  0  0
 11 78  1  0  0  0  0
 11 12  1  0  0  0  0
 12 13  1  0  0  0  0
 12 81  1  0  0  0  0
 13 82  1  0  0  0  0
 13 83  1  0  0  0  0
 14 85  1  0  0  0  0
 14 13  1  0  0  0  0
 15 86  1  0  0  0  0
 16 15  1  0  0  0  0
 16 17  1  0  0  0  0
 17 18  1  0  0  0  0
 17 87  1  0  0  0  0
 18 89  1  0  0  0  0
 18 19  1  0  0  0  0
 19 90  1  0  0  0  0
 19 91  1  0  0  0  0
 20 93  1  0  0  0  0
 20 19  1  0  0  0  0
 21 20  1  0  0  0  0
 21 94  1  0  0  0  0
 22 17  1  0  0  0  0
 22 21  1  0  0  0  0
 23 16  2  0  0  0  0
 24  7  2  0  0  0  0
 24 23  1  0  0  0  0
 25 24  1  0  0  0  0
 26 25  1  0  0  0  0
 26100  1  0  0  0  0
 27103  1  0  0  0  0
 27 26  1  0  0  0  0
 28 27  1  0  0  0  0
 29 28  1  0  0  0  0
 29 30  1  0  0  0  0
 30109  1  0  0  0  0
 30 25  1  0  0  0  0
 31  6  2  0  0  0  0
 32 33  1  0  0  0  0
 32 31  1  0  0  0  0
 33 38  1  0  0  0  0
 34111  1  0  0  0  0
 34 33  2  0  0  0  0
 35 34  1  0  0  0  0
 36 35  2  0  0  0  0
 36 37  1  0  0  0  0
 37 32  2  0  0  0  0
 38 39  1  0  0  0  0
 38  5  2  0  0  0  0
 39 40  2  0  0  0  0
 39 69  1  0  0  0  0
 40 42  1  0  0  0  0
 41 40  1  0  0  0  0
 41  2  1  0  0  0  0
 42 43  1  0  0  0  0
 42 67  2  0  0  0  0
 43 44  2  0  0  0  0
 44 45  1  0  0  0  0
 45 50  1  0  0  0  0
 45 46  1  0  0  0  0
 46117  1  0  0  0  0
 46 47  1  0  0  0  0
 47 48  1  0  0  0  0
 47119  1  0  0  0  0
 48121  1  0  0  0  0
 48120  1  0  0  0  0
 49122  1  0  0  0  0
 49 48  1  0  0  0  0
 50125  1  0  0  0  0
 50 49  1  0  0  0  0
 51 44  1  0  0  0  0
 51126  1  0  0  0  0
 52 53  1  0  0  0  0
 52 51  2  0  0  0  0
 53127  1  0  0  0  0
 54128  1  0  0  0  0
 54 53  1  0  0  0  0
 55 56  1  0  0  0  0
 55 54  1  0  0  0  0
 56132  1  0  0  0  0
 56 57  1  0  0  0  0
 57 58  1  0  0  0  0
 57134  1  0  0  0  0
 58 53  1  0  0  0  0
 58136  1  0  0  0  0
 59 52  1  0  0  0  0
 60 59  2  0  0  0  0
 60 43  1  0  0  0  0
 61139  1  0  0  0  0
 61 60  1  0  0  0  0
 62141  1  0  0  0  0
 62 61  1  0  0  0  0
 63143  1  0  0  0  0
 63 62  1  0  0  0  0
 64 65  1  0  0  0  0
 64 63  1  0  0  0  0
 65 66  1  0  0  0  0
 66148  1  0  0  0  0
 66149  1  0  0  0  0
 66 61  1  0  0  0  0
 67 68  1  0  0  0  0
 67150  1  0  0  0  0
 68 73  2  0  0  0  0
 69 70  2  0  0  0  0
 69 68  1  0  0  0  0
 70 71  1  0  0  0  0
 71152  1  0  0  0  0
 71 72  2  0  0  0  0
 72153  1  0  0  0  0
 73 72  1  0  0  0  0
 73154  1  0  0  0  0
 74  3  1  0  0  0  0
 75  9  1  0  0  0  0
 77 10  1  0  0  0  0
 79 11  1  0  0  0  0
 80 12  1  0  0  0  0
 84 14  1  0  0  0  0
 88 18  1  0  0  0  0
 92 20  1  0  0  0  0
 95 21  1  0  0  0  0
 96 22  1  0  0  0  0
 97 22  1  0  0  0  0
 98 23  1  0  0  0  0
 99 25  1  0  0  0  0
101 26  1  0  0  0  0
102 27  1  0  0  0  0
104 28  1  0  0  0  0
105 28  1  0  0  0  0
106 29  1  0  0  0  0
107 29  1  0  0  0  0
108 30  1  0  0  0  0
110 31  1  0  0  0  0
112 35  1  0  0  0  0
113 36  1  0  0  0  0
114 37  1  0  0  0  0
115 45  1  0  0  0  0
116 46  1  0  0  0  0
118 47  1  0  0  0  0
123 49  1  0  0  0  0
124 50  1  0  0  0  0
129 54  1  0  0  0  0
130 55  1  0  0  0  0
131 55  1  0  0  0  0
133 56  1  0  0  0  0
135 57  1  0  0  0  0
137 58  1  0  0  0  0
138 59  1  0  0  0  0
140 62  1  0  0  0  0
142 63  1  0  0  0  0
144 64  1  0  0  0  0
145 64  1  0  0  0  0
146 65  1  0  0  0  0
147 65  1  0  0  0  0
151 70  1  0  0  0  0
M  END
$$$$
