O=P1(O)OC2=C(CC)C=C3C(CCCC3)=C2C4=C(O1)C(CC)=CC5=C4CCCC5
 OpenBabel09032010373D

 58 62  0  0  0  0  0  0  0  0999 V2000
    1.5232    4.1952    0.9902 O   0  0  0  0  0  0  0  0  0  0  0  0
    0.6845    3.3328    0.1000 P   0  0  0  0  0  0  0  0  0  0  0  0
   -0.0235    4.1549   -1.0919 O   0  0  0  0  0  0  0  0  0  0  0  0
    1.4875    2.1991   -0.7207 O   0  0  0  0  0  0  0  0  0  0  0  0
    1.7893    1.0388   -0.0494 C   0  0  0  0  0  0  0  0  0  0  0  0
    3.1383    0.8010    0.2487 C   0  0  0  0  0  0  0  0  0  0  0  0
    4.2311    1.7538   -0.1715 C   0  0  0  0  0  0  0  0  0  0  0  0
    4.6694    1.5157   -1.6088 C   0  0  0  0  0  0  0  0  0  0  0  0
    3.4658   -0.3659    0.9365 C   0  0  0  0  0  0  0  0  0  0  0  0
    2.4705   -1.2498    1.3719 C   0  0  0  0  0  0  0  0  0  0  0  0
    1.1128   -1.0038    1.0465 C   0  0  0  0  0  0  0  0  0  0  0  0
    0.0402   -1.8614    1.7097 C   0  0  0  0  0  0  0  0  0  0  0  0
    0.5320   -3.2355    2.1569 C   0  0  0  0  0  0  0  0  0  0  0  0
    1.7976   -3.0937    2.9842 C   0  0  0  0  0  0  0  0  0  0  0  0
    2.9055   -2.4763    2.1414 C   0  0  0  0  0  0  0  0  0  0  0  0
    0.7448    0.1382    0.2630 C   0  0  0  0  0  0  0  0  0  0  0  0
   -0.5966    0.4020   -0.1932 C   0  0  0  0  0  0  0  0  0  0  0  0
   -1.2424    1.6166    0.1422 C   0  0  0  0  0  0  0  0  0  0  0  0
   -0.5550    2.5941    0.8230 O   0  0  0  0  0  0  0  0  0  0  0  0
   -2.5888    1.8859   -0.1497 C   0  0  0  0  0  0  0  0  0  0  0  0
   -3.2737    3.1478    0.3199 C   0  0  0  0  0  0  0  0  0  0  0  0
   -3.7651    3.0259    1.7546 C   0  0  0  0  0  0  0  0  0  0  0  0
   -3.3139    0.9356   -0.8657 C   0  0  0  0  0  0  0  0  0  0  0  0
   -2.7036   -0.2352   -1.3309 C   0  0  0  0  0  0  0  0  0  0  0  0
   -1.3512   -0.5071   -1.0043 C   0  0  0  0  0  0  0  0  0  0  0  0
   -0.6612   -1.6822   -1.6909 C   0  0  0  0  0  0  0  0  0  0  0  0
   -1.6170   -2.7725   -2.1680 C   0  0  0  0  0  0  0  0  0  0  0  0
   -2.7403   -2.1612   -2.9868 C   0  0  0  0  0  0  0  0  0  0  0  0
   -3.5515   -1.2034   -2.1249 C   0  0  0  0  0  0  0  0  0  0  0  0
   -0.5110    3.5639   -1.6923 H   0  0  0  0  0  0  0  0  0  0  0  0
    5.0955    1.6430    0.4949 H   0  0  0  0  0  0  0  0  0  0  0  0
    3.8957    2.7899   -0.0480 H   0  0  0  0  0  0  0  0  0  0  0  0
    5.4697    2.2115   -1.8799 H   0  0  0  0  0  0  0  0  0  0  0  0
    3.8412    1.6633   -2.3098 H   0  0  0  0  0  0  0  0  0  0  0  0
    5.0458    0.4960   -1.7442 H   0  0  0  0  0  0  0  0  0  0  0  0
    4.5090   -0.5775    1.1671 H   0  0  0  0  0  0  0  0  0  0  0  0
   -0.3209   -1.3079    2.5867 H   0  0  0  0  0  0  0  0  0  0  0  0
   -0.8233   -2.0226    1.0626 H   0  0  0  0  0  0  0  0  0  0  0  0
    0.7265   -3.8681    1.2817 H   0  0  0  0  0  0  0  0  0  0  0  0
   -0.2478   -3.7304    2.7466 H   0  0  0  0  0  0  0  0  0  0  0  0
    1.5979   -2.4641    3.8605 H   0  0  0  0  0  0  0  0  0  0  0  0
    2.1188   -4.0724    3.3579 H   0  0  0  0  0  0  0  0  0  0  0  0
    3.7451   -2.2266    2.8016 H   0  0  0  0  0  0  0  0  0  0  0  0
    3.2673   -3.2166    1.4165 H   0  0  0  0  0  0  0  0  0  0  0  0
   -2.5945    4.0030    0.2270 H   0  0  0  0  0  0  0  0  0  0  0  0
   -4.1228    3.3742   -0.3370 H   0  0  0  0  0  0  0  0  0  0  0  0
   -4.4774    2.2006    1.8604 H   0  0  0  0  0  0  0  0  0  0  0  0
   -4.2672    3.9488    2.0617 H   0  0  0  0  0  0  0  0  0  0  0  0
   -2.9368    2.8450    2.4476 H   0  0  0  0  0  0  0  0  0  0  0  0
   -4.3653    1.1158   -1.0865 H   0  0  0  0  0  0  0  0  0  0  0  0
   -0.1190   -1.2784   -2.5562 H   0  0  0  0  0  0  0  0  0  0  0  0
    0.0809   -2.1621   -1.0513 H   0  0  0  0  0  0  0  0  0  0  0  0
   -1.0678   -3.5034   -2.7721 H   0  0  0  0  0  0  0  0  0  0  0  0
   -2.0325   -3.3111   -1.3070 H   0  0  0  0  0  0  0  0  0  0  0  0
   -3.3936   -2.9472   -3.3818 H   0  0  0  0  0  0  0  0  0  0  0  0
   -2.3213   -1.6270   -3.8489 H   0  0  0  0  0  0  0  0  0  0  0  0
   -4.2413   -0.6513   -2.7749 H   0  0  0  0  0  0  0  0  0  0  0  0
   -4.1595   -1.7781   -1.4146 H   0  0  0  0  0  0  0  0  0  0  0  0
  2 19  1  0  0  0  0
  2  1  2  0  0  0  0
  3  2  1  0  0  0  0
  4  5  1  0  0  0  0
  4  2  1  0  0  0  0
  5  6  2  0  0  0  0
  5 16  1  0  0  0  0
  6  9  1  0  0  0  0
  7 32  1  0  0  0  0
  7  6  1  0  0  0  0
  7 31  1  0  0  0  0
  8  7  1  0  0  0  0
  9 36  1  0  0  0  0
  9 10  2  0  0  0  0
 10 15  1  0  0  0  0
 11 10  1  0  0  0  0
 11 12  1  0  0  0  0
 12 13  1  0  0  0  0
 12 37  1  0  0  0  0
 13 40  1  0  0  0  0
 13 14  1  0  0  0  0
 14 42  1  0  0  0  0
 14 41  1  0  0  0  0
 15 43  1  0  0  0  0
 15 14  1  0  0  0  0
 16 11  2  0  0  0  0
 17 18  2  0  0  0  0
 17 16  1  0  0  0  0
 18 19  1  0  0  0  0
 20 18  1  0  0  0  0
 20 21  1  0  0  0  0
 21 22  1  0  0  0  0
 22 47  1  0  0  0  0
 22 48  1  0  0  0  0
 22 49  1  0  0  0  0
 23 20  2  0  0  0  0
 24 25  2  0  0  0  0
 24 23  1  0  0  0  0
 25 17  1  0  0  0  0
 26 52  1  0  0  0  0
 26 25  1  0  0  0  0
 27 26  1  0  0  0  0
 27 54  1  0  0  0  0
 28 27  1  0  0  0  0
 28 29  1  0  0  0  0
 29 58  1  0  0  0  0
 29 24  1  0  0  0  0
 30  3  1  0  0  0  0
 33  8  1  0  0  0  0
 34  8  1  0  0  0  0
 35  8  1  0  0  0  0
 38 12  1  0  0  0  0
 39 13  1  0  0  0  0
 44 15  1  0  0  0  0
 45 21  1  0  0  0  0
 46 21  1  0  0  0  0
 50 23  1  0  0  0  0
 51 26  1  0  0  0  0
 53 27  1  0  0  0  0
 55 28  1  0  0  0  0
 56 28  1  0  0  0  0
 57 29  1  0  0  0  0
M  END
$$$$
