O=P1(O)OC2=C(C3=C(C4=CC(C=CC=C5)=C5C=C4)C=CC=C3)C=C6C(CCCC6)=C2C7=C(O1)C(C8=CC=CC=C8C9=CC=C(C=CC=C%10)C%10=C9)=CC%11=C7CCCC%11
 OpenBabel09032010383D

 98108  0  0  0  0  0  0  0  0999 V2000
   -0.3961   -3.1048    2.5434 O   0  0  0  0  0  0  0  0  0  0  0  0
   -0.3679   -2.7735    1.0838 P   0  0  0  0  0  0  0  0  0  0  0  0
   -0.7262   -4.0344    0.1455 O   0  0  0  0  0  0  0  0  0  0  0  0
    1.0648   -2.3094    0.5249 O   0  0  0  0  0  0  0  0  0  0  0  0
    1.1831   -1.7137   -0.7083 C   0  0  0  0  0  0  0  0  0  0  0  0
    1.9866   -2.3764   -1.6577 C   0  0  0  0  0  0  0  0  0  0  0  0
    2.7406   -3.6164   -1.3539 C   0  0  0  0  0  0  0  0  0  0  0  0
    3.7855   -3.6666   -0.3902 C   0  0  0  0  0  0  0  0  0  0  0  0
    4.1753   -2.4933    0.4142 C   0  0  0  0  0  0  0  0  0  0  0  0
    3.9116   -2.4677    1.7948 C   0  0  0  0  0  0  0  0  0  0  0  0
    4.1474   -1.3193    2.5651 C   0  0  0  0  0  0  0  0  0  0  0  0
    3.8324   -1.2827    3.9324 C   0  0  0  0  0  0  0  0  0  0  0  0
    4.0240   -0.1174    4.6732 C   0  0  0  0  0  0  0  0  0  0  0  0
    4.5469    1.0178    4.0609 C   0  0  0  0  0  0  0  0  0  0  0  0
    4.8874    0.9895    2.7079 C   0  0  0  0  0  0  0  0  0  0  0  0
    4.6894   -0.1715    1.9453 C   0  0  0  0  0  0  0  0  0  0  0  0
    5.0042   -0.2130    0.5792 C   0  0  0  0  0  0  0  0  0  0  0  0
    4.7491   -1.3603   -0.1763 C   0  0  0  0  0  0  0  0  0  0  0  0
    4.4567   -4.8867   -0.1747 C   0  0  0  0  0  0  0  0  0  0  0  0
    4.1159   -6.0369   -0.8856 C   0  0  0  0  0  0  0  0  0  0  0  0
    3.0949   -5.9909   -1.8262 C   0  0  0  0  0  0  0  0  0  0  0  0
    2.4168   -4.7940   -2.0590 C   0  0  0  0  0  0  0  0  0  0  0  0
    2.0802   -1.8128   -2.9334 C   0  0  0  0  0  0  0  0  0  0  0  0
    1.3812   -0.6474   -3.2708 C   0  0  0  0  0  0  0  0  0  0  0  0
    0.6265    0.0325   -2.2844 C   0  0  0  0  0  0  0  0  0  0  0  0
   -0.2662    1.1917   -2.7194 C   0  0  0  0  0  0  0  0  0  0  0  0
    0.1697    1.8606   -4.0203 C   0  0  0  0  0  0  0  0  0  0  0  0
    0.3966    0.8146   -5.0976 C   0  0  0  0  0  0  0  0  0  0  0  0
    1.5212   -0.1244   -4.6822 C   0  0  0  0  0  0  0  0  0  0  0  0
    0.5639   -0.4618   -0.9419 C   0  0  0  0  0  0  0  0  0  0  0  0
   -0.0861    0.2473    0.1298 C   0  0  0  0  0  0  0  0  0  0  0  0
   -1.1459   -0.3595    0.8420 C   0  0  0  0  0  0  0  0  0  0  0  0
   -1.4430   -1.6780    0.5824 O   0  0  0  0  0  0  0  0  0  0  0  0
   -1.9499    0.3221    1.7720 C   0  0  0  0  0  0  0  0  0  0  0  0
   -3.1374   -0.2953    2.3922 C   0  0  0  0  0  0  0  0  0  0  0  0
   -2.9643   -1.1943    3.4611 C   0  0  0  0  0  0  0  0  0  0  0  0
   -4.0566   -1.8008    4.0817 C   0  0  0  0  0  0  0  0  0  0  0  0
   -5.3459   -1.5122    3.6522 C   0  0  0  0  0  0  0  0  0  0  0  0
   -5.5427   -0.6153    2.6025 C   0  0  0  0  0  0  0  0  0  0  0  0
   -4.4541    0.0047    1.9577 C   0  0  0  0  0  0  0  0  0  0  0  0
   -4.7288    0.9497    0.8611 C   0  0  0  0  0  0  0  0  0  0  0  0
   -5.2484    2.2219    1.1350 C   0  0  0  0  0  0  0  0  0  0  0  0
   -5.5095    3.1261    0.1028 C   0  0  0  0  0  0  0  0  0  0  0  0
   -5.2627    2.7775   -1.2324 C   0  0  0  0  0  0  0  0  0  0  0  0
   -5.5238    3.6743   -2.2807 C   0  0  0  0  0  0  0  0  0  0  0  0
   -5.2793    3.3125   -3.6060 C   0  0  0  0  0  0  0  0  0  0  0  0
   -4.7702    2.0511   -3.8993 C   0  0  0  0  0  0  0  0  0  0  0  0
   -4.5035    1.1492   -2.8677 C   0  0  0  0  0  0  0  0  0  0  0  0
   -4.7438    1.4969   -1.5282 C   0  0  0  0  0  0  0  0  0  0  0  0
   -4.4836    0.6002   -0.4768 C   0  0  0  0  0  0  0  0  0  0  0  0
   -1.6101    1.6396    2.0850 C   0  0  0  0  0  0  0  0  0  0  0  0
   -0.4922    2.2591    1.5129 C   0  0  0  0  0  0  0  0  0  0  0  0
    0.2704    1.5734    0.5367 C   0  0  0  0  0  0  0  0  0  0  0  0
    1.5824    2.1942    0.0705 C   0  0  0  0  0  0  0  0  0  0  0  0
    1.6463    3.7102    0.2369 C   0  0  0  0  0  0  0  0  0  0  0  0
    1.2522    4.0984    1.6514 C   0  0  0  0  0  0  0  0  0  0  0  0
   -0.1863    3.6801    1.9256 C   0  0  0  0  0  0  0  0  0  0  0  0
   -0.6984   -3.7917   -0.7955 H   0  0  0  0  0  0  0  0  0  0  0  0
    3.4552   -3.3395    2.2622 H   0  0  0  0  0  0  0  0  0  0  0  0
    3.4380   -2.1624    4.4356 H   0  0  0  0  0  0  0  0  0  0  0  0
    3.7694   -0.0978    5.7295 H   0  0  0  0  0  0  0  0  0  0  0  0
    4.6971    1.9257    4.6386 H   0  0  0  0  0  0  0  0  0  0  0  0
    5.2984    1.8857    2.2495 H   0  0  0  0  0  0  0  0  0  0  0  0
    5.4295    0.6570    0.0850 H   0  0  0  0  0  0  0  0  0  0  0  0
    4.9722   -1.3541   -1.2406 H   0  0  0  0  0  0  0  0  0  0  0  0
    5.2580   -4.9410    0.5608 H   0  0  0  0  0  0  0  0  0  0  0  0
    4.6462   -6.9671   -0.6988 H   0  0  0  0  0  0  0  0  0  0  0  0
    2.8216   -6.8864   -2.3777 H   0  0  0  0  0  0  0  0  0  0  0  0
    1.6179   -4.7844   -2.7977 H   0  0  0  0  0  0  0  0  0  0  0  0
    2.7028   -2.2972   -3.6854 H   0  0  0  0  0  0  0  0  0  0  0  0
   -0.3306    1.9746   -1.9622 H   0  0  0  0  0  0  0  0  0  0  0  0
   -1.2791    0.7884   -2.8473 H   0  0  0  0  0  0  0  0  0  0  0  0
    1.0911    2.4337   -3.8569 H   0  0  0  0  0  0  0  0  0  0  0  0
   -0.5996    2.5711   -4.3431 H   0  0  0  0  0  0  0  0  0  0  0  0
   -0.5272    0.2452   -5.2608 H   0  0  0  0  0  0  0  0  0  0  0  0
    0.6497    1.2971   -6.0481 H   0  0  0  0  0  0  0  0  0  0  0  0
    2.4812    0.4025   -4.7524 H   0  0  0  0  0  0  0  0  0  0  0  0
    1.5537   -0.9615   -5.3901 H   0  0  0  0  0  0  0  0  0  0  0  0
   -1.9631   -1.4328    3.8173 H   0  0  0  0  0  0  0  0  0  0  0  0
   -3.8937   -2.5005    4.8973 H   0  0  0  0  0  0  0  0  0  0  0  0
   -6.1990   -1.9846    4.1317 H   0  0  0  0  0  0  0  0  0  0  0  0
   -6.5592   -0.4007    2.2769 H   0  0  0  0  0  0  0  0  0  0  0  0
   -5.4456    2.5187    2.1630 H   0  0  0  0  0  0  0  0  0  0  0  0
   -5.9086    4.1064    0.3521 H   0  0  0  0  0  0  0  0  0  0  0  0
   -5.9228    4.6638   -2.0705 H   0  0  0  0  0  0  0  0  0  0  0  0
   -5.4889    4.0156   -4.4079 H   0  0  0  0  0  0  0  0  0  0  0  0
   -4.5826    1.7674   -4.9316 H   0  0  0  0  0  0  0  0  0  0  0  0
   -4.1064    0.1680   -3.1174 H   0  0  0  0  0  0  0  0  0  0  0  0
   -4.0831   -0.3882   -0.6972 H   0  0  0  0  0  0  0  0  0  0  0  0
   -2.2185    2.1875    2.8037 H   0  0  0  0  0  0  0  0  0  0  0  0
    2.3851    1.7364    0.6619 H   0  0  0  0  0  0  0  0  0  0  0  0
    1.7966    1.9749   -0.9769 H   0  0  0  0  0  0  0  0  0  0  0  0
    2.6620    4.0605    0.0211 H   0  0  0  0  0  0  0  0  0  0  0  0
    0.9764    4.1957   -0.4839 H   0  0  0  0  0  0  0  0  0  0  0  0
    1.3560    5.1801    1.7914 H   0  0  0  0  0  0  0  0  0  0  0  0
    1.9267    3.6145    2.3691 H   0  0  0  0  0  0  0  0  0  0  0  0
   -0.3883    3.8115    2.9956 H   0  0  0  0  0  0  0  0  0  0  0  0
   -0.8689    4.3432    1.3790 H   0  0  0  0  0  0  0  0  0  0  0  0
  2  1  2  0  0  0  0
  3  2  1  0  0  0  0
  4  2  1  0  0  0  0
  5  4  1  0  0  0  0
  6  7  1  0  0  0  0
  6  5  2  0  0  0  0
  7  8  2  0  0  0  0
  8 19  1  0  0  0  0
  8  9  1  0  0  0  0
  9 10  1  0  0  0  0
 10 59  1  0  0  0  0
 10 11  2  0  0  0  0
 11 12  1  0  0  0  0
 12 60  1  0  0  0  0
 12 13  2  0  0  0  0
 13 61  1  0  0  0  0
 14 62  1  0  0  0  0
 14 13  1  0  0  0  0
 15 14  2  0  0  0  0
 16 11  1  0  0  0  0
 16 15  1  0  0  0  0
 17 16  2  0  0  0  0
 18  9  2  0  0  0  0
 18 17  1  0  0  0  0
 19 66  1  0  0  0  0
 20 67  1  0  0  0  0
 20 19  2  0  0  0  0
 21 20  1  0  0  0  0
 22 21  2  0  0  0  0
 22  7  1  0  0  0  0
 23  6  1  0  0  0  0
 24 23  2  0  0  0  0
 24 25  1  0  0  0  0
 25 30  2  0  0  0  0
 26 25  1  0  0  0  0
 26 71  1  0  0  0  0
 27 73  1  0  0  0  0
 27 26  1  0  0  0  0
 28 29  1  0  0  0  0
 28 27  1  0  0  0  0
 29 24  1  0  0  0  0
 30  5  1  0  0  0  0
 30 31  1  0  0  0  0
 31 53  2  0  0  0  0
 31 32  1  0  0  0  0
 32 34  2  0  0  0  0
 33 32  1  0  0  0  0
 33  2  1  0  0  0  0
 34 51  1  0  0  0  0
 34 35  1  0  0  0  0
 35 36  1  0  0  0  0
 36 79  1  0  0  0  0
 36 37  2  0  0  0  0
 37 80  1  0  0  0  0
 38 37  1  0  0  0  0
 38 81  1  0  0  0  0
 39 38  2  0  0  0  0
 40 35  2  0  0  0  0
 40 39  1  0  0  0  0
 41 42  1  0  0  0  0
 41 40  1  0  0  0  0
 42 83  1  0  0  0  0
 43 84  1  0  0  0  0
 43 42  2  0  0  0  0
 44 43  1  0  0  0  0
 45 85  1  0  0  0  0
 45 44  2  0  0  0  0
 46 45  1  0  0  0  0
 47 46  2  0  0  0  0
 47 48  1  0  0  0  0
 48 49  2  0  0  0  0
 49 44  1  0  0  0  0
 49 50  1  0  0  0  0
 50 41  2  0  0  0  0
 51 90  1  0  0  0  0
 52 57  1  0  0  0  0
 52 51  2  0  0  0  0
 53 52  1  0  0  0  0
 54 55  1  0  0  0  0
 54 53  1  0  0  0  0
 54 91  1  0  0  0  0
 55 56  1  0  0  0  0
 56 95  1  0  0  0  0
 56 57  1  0  0  0  0
 56 96  1  0  0  0  0
 57 97  1  0  0  0  0
 58  3  1  0  0  0  0
 63 15  1  0  0  0  0
 64 17  1  0  0  0  0
 65 18  1  0  0  0  0
 68 21  1  0  0  0  0
 69 22  1  0  0  0  0
 70 23  1  0  0  0  0
 72 26  1  0  0  0  0
 74 27  1  0  0  0  0
 75 28  1  0  0  0  0
 76 28  1  0  0  0  0
 77 29  1  0  0  0  0
 78 29  1  0  0  0  0
 82 39  1  0  0  0  0
 86 46  1  0  0  0  0
 87 47  1  0  0  0  0
 88 48  1  0  0  0  0
 89 50  1  0  0  0  0
 92 54  1  0  0  0  0
 93 55  1  0  0  0  0
 94 55  1  0  0  0  0
 98 57  1  0  0  0  0
M  END
$$$$
