O=P1(O)OC2=C(C3=C(C=CC=C4)C4=C(C5=CC(C=CC=C6)=C6C=C5)C7=C3C=CC=C7)C=C8C(C=CC=C8)=[C@]2[C@]9=C(O1)C(C%10=C(C=CC=C%11)C%11=C(C%12=CC=C(C=CC=C%13)C%13=C%12)C%14=C%10C=CC=C%14)=CC%15=C9C=CC=C%15
 OpenBabel09032010373D

114128  0  0  0  0  0  0  0  0999 V2000
    0.7842    1.2576   -0.0315 O   0  0  0  0  0  0  0  0  0  0  0  0
    0.2163   -0.1237    0.0364 P   0  0  0  0  0  0  0  0  0  0  0  0
   -0.4310   -0.5563   -1.3701 O   0  0  0  0  0  0  0  0  0  0  0  0
   -0.9933   -0.3090    1.0833 O   0  0  0  0  0  0  0  0  0  0  0  0
   -1.4867   -1.5689    1.3359 C   0  0  0  0  0  0  0  0  0  0  0  0
   -2.8345   -1.7896    0.9904 C   0  0  0  0  0  0  0  0  0  0  0  0
   -3.6803   -0.7254    0.3860 C   0  0  0  0  0  0  0  0  0  0  0  0
   -3.8815   -0.6957   -1.0289 C   0  0  0  0  0  0  0  0  0  0  0  0
   -3.3086   -1.6577   -1.9034 C   0  0  0  0  0  0  0  0  0  0  0  0
   -3.4952   -1.6257   -3.2845 C   0  0  0  0  0  0  0  0  0  0  0  0
   -4.2682   -0.6264   -3.8408 C   0  0  0  0  0  0  0  0  0  0  0  0
   -4.8464    0.3320   -3.0104 C   0  0  0  0  0  0  0  0  0  0  0  0
   -4.6753    0.3279   -1.5998 C   0  0  0  0  0  0  0  0  0  0  0  0
   -5.2720    1.3130   -0.7544 C   0  0  0  0  0  0  0  0  0  0  0  0
   -6.1061    2.3821   -1.3532 C   0  0  0  0  0  0  0  0  0  0  0  0
   -7.4856    2.1912   -1.5388 C   0  0  0  0  0  0  0  0  0  0  0  0
   -8.2908    3.1918   -2.1076 C   0  0  0  0  0  0  0  0  0  0  0  0
   -9.6693    3.0025   -2.2947 C   0  0  0  0  0  0  0  0  0  0  0  0
  -10.4565    4.0057   -2.8619 C   0  0  0  0  0  0  0  0  0  0  0  0
   -9.8766    5.2102   -3.2491 C   0  0  0  0  0  0  0  0  0  0  0  0
   -8.5073    5.4138   -3.0694 C   0  0  0  0  0  0  0  0  0  0  0  0
   -7.7014    4.4147   -2.5001 C   0  0  0  0  0  0  0  0  0  0  0  0
   -6.3241    4.6048   -2.3125 C   0  0  0  0  0  0  0  0  0  0  0  0
   -5.5358    3.6005   -1.7457 C   0  0  0  0  0  0  0  0  0  0  0  0
   -5.0811    1.2771    0.6607 C   0  0  0  0  0  0  0  0  0  0  0  0
   -4.2862    0.2554    1.2326 C   0  0  0  0  0  0  0  0  0  0  0  0
   -4.1268    0.2496    2.6449 C   0  0  0  0  0  0  0  0  0  0  0  0
   -4.7116    1.2059    3.4734 C   0  0  0  0  0  0  0  0  0  0  0  0
   -5.4839    2.2042    2.9140 C   0  0  0  0  0  0  0  0  0  0  0  0
   -5.6645    2.2357    1.5322 C   0  0  0  0  0  0  0  0  0  0  0  0
   -3.3885   -3.0429    1.2568 C   0  0  0  0  0  0  0  0  0  0  0  0
   -2.6225   -4.0679    1.8140 C   0  0  0  0  0  0  0  0  0  0  0  0
   -1.2677   -3.8330    2.1736 C   0  0  0  0  0  0  0  0  0  0  0  0
   -0.5444   -4.9574    2.6471 C   0  0  0  0  0  0  0  0  0  0  0  0
   -1.1320   -6.2140    2.8188 C   0  0  0  0  0  0  0  0  0  0  0  0
   -2.4686   -6.3977    2.5045 C   0  0  0  0  0  0  0  0  0  0  0  0
   -3.2068   -5.3319    1.9995 C   0  0  0  0  0  0  0  0  0  0  0  0
   -0.6830   -2.5240    2.0056 C   0  0  0  0  0  0  0  0  0  0  0  0
    0.6296   -2.1589    2.5066 C   0  0  0  0  0  0  0  0  0  0  0  0
    1.5876   -1.5740    1.6435 C   0  0  0  0  0  0  0  0  0  0  0  0
    1.2491   -1.3194    0.3352 O   0  0  0  0  0  0  0  0  0  0  0  0
    2.9211   -1.3208    2.0129 C   0  0  0  0  0  0  0  0  0  0  0  0
    3.9096   -0.7547    1.0584 C   0  0  0  0  0  0  0  0  0  0  0  0
    4.5742   -1.6200    0.1343 C   0  0  0  0  0  0  0  0  0  0  0  0
    4.3447   -3.0221    0.0993 C   0  0  0  0  0  0  0  0  0  0  0  0
    4.9820   -3.8669   -0.8081 C   0  0  0  0  0  0  0  0  0  0  0  0
    5.8771   -3.3345   -1.7147 C   0  0  0  0  0  0  0  0  0  0  0  0
    6.1286   -1.9634   -1.7029 C   0  0  0  0  0  0  0  0  0  0  0  0
    5.4976   -1.0762   -0.7899 C   0  0  0  0  0  0  0  0  0  0  0  0
    5.7625    0.3277   -0.7787 C   0  0  0  0  0  0  0  0  0  0  0  0
    6.7138    0.9008   -1.7601 C   0  0  0  0  0  0  0  0  0  0  0  0
    8.0800    0.9936   -1.4648 C   0  0  0  0  0  0  0  0  0  0  0  0
    8.9710    1.5403   -2.3911 C   0  0  0  0  0  0  0  0  0  0  0  0
    8.5176    2.0076   -3.6342 C   0  0  0  0  0  0  0  0  0  0  0  0
    9.4008    2.5613   -4.5752 C   0  0  0  0  0  0  0  0  0  0  0  0
    8.9337    3.0236   -5.8069 C   0  0  0  0  0  0  0  0  0  0  0  0
    7.5786    2.9378   -6.1129 C   0  0  0  0  0  0  0  0  0  0  0  0
    6.6881    2.3892   -5.1888 C   0  0  0  0  0  0  0  0  0  0  0  0
    7.1423    1.9200   -3.9458 C   0  0  0  0  0  0  0  0  0  0  0  0
    6.2582    1.3669   -3.0049 C   0  0  0  0  0  0  0  0  0  0  0  0
    5.1147    1.1895    0.1590 C   0  0  0  0  0  0  0  0  0  0  0  0
    4.1825    0.6489    1.0762 C   0  0  0  0  0  0  0  0  0  0  0  0
    3.5459    1.5415    1.9807 C   0  0  0  0  0  0  0  0  0  0  0  0
    3.8132    2.9096    2.0016 C   0  0  0  0  0  0  0  0  0  0  0  0
    4.7296    3.4348    1.1126 C   0  0  0  0  0  0  0  0  0  0  0  0
    5.3654    2.5874    0.2070 C   0  0  0  0  0  0  0  0  0  0  0  0
    3.3131   -1.6242    3.3182 C   0  0  0  0  0  0  0  0  0  0  0  0
    2.4006   -2.1197    4.2514 C   0  0  0  0  0  0  0  0  0  0  0  0
    1.0539   -2.3685    3.8709 C   0  0  0  0  0  0  0  0  0  0  0  0
    0.1778   -2.7727    4.9109 C   0  0  0  0  0  0  0  0  0  0  0  0
    0.6110   -2.9863    6.2227 C   0  0  0  0  0  0  0  0  0  0  0  0
    1.9421   -2.7850    6.5494 C   0  0  0  0  0  0  0  0  0  0  0  0
    2.8289   -2.3473    5.5702 C   0  0  0  0  0  0  0  0  0  0  0  0
   -0.9029    0.1936   -1.7761 H   0  0  0  0  0  0  0  0  0  0  0  0
   -2.6802   -2.4577   -1.5142 H   0  0  0  0  0  0  0  0  0  0  0  0
   -3.0337   -2.3810   -3.9150 H   0  0  0  0  0  0  0  0  0  0  0  0
   -4.4273   -0.5860   -4.9148 H   0  0  0  0  0  0  0  0  0  0  0  0
   -5.4497    1.1000   -3.4927 H   0  0  0  0  0  0  0  0  0  0  0  0
   -7.9322    1.2460   -1.2336 H   0  0  0  0  0  0  0  0  0  0  0  0
  -10.1406    2.0680   -1.9985 H   0  0  0  0  0  0  0  0  0  0  0  0
  -11.5221    3.8444   -3.0004 H   0  0  0  0  0  0  0  0  0  0  0  0
  -10.4887    5.9921   -3.6911 H   0  0  0  0  0  0  0  0  0  0  0  0
   -8.0712    6.3611   -3.3782 H   0  0  0  0  0  0  0  0  0  0  0  0
   -5.8529    5.5402   -2.6066 H   0  0  0  0  0  0  0  0  0  0  0  0
   -4.4701    3.7732   -1.6092 H   0  0  0  0  0  0  0  0  0  0  0  0
   -3.5269   -0.5169    3.1318 H   0  0  0  0  0  0  0  0  0  0  0  0
   -4.5574    1.1644    4.5480 H   0  0  0  0  0  0  0  0  0  0  0  0
   -5.9485    2.9592    3.5421 H   0  0  0  0  0  0  0  0  0  0  0  0
   -6.2833    3.0395    1.1361 H   0  0  0  0  0  0  0  0  0  0  0  0
   -4.4317   -3.2212    0.9964 H   0  0  0  0  0  0  0  0  0  0  0  0
    0.5154   -4.8724    2.8808 H   0  0  0  0  0  0  0  0  0  0  0  0
   -0.5369   -7.0439    3.1914 H   0  0  0  0  0  0  0  0  0  0  0  0
   -2.9344   -7.3705    2.6328 H   0  0  0  0  0  0  0  0  0  0  0  0
   -4.2492   -5.5032    1.7358 H   0  0  0  0  0  0  0  0  0  0  0  0
    3.6443   -3.4856    0.7914 H   0  0  0  0  0  0  0  0  0  0  0  0
    4.7708   -4.9324   -0.8027 H   0  0  0  0  0  0  0  0  0  0  0  0
    6.3820   -3.9751   -2.4322 H   0  0  0  0  0  0  0  0  0  0  0  0
    6.8412   -1.5876   -2.4355 H   0  0  0  0  0  0  0  0  0  0  0  0
    8.4564    0.6402   -0.5070 H   0  0  0  0  0  0  0  0  0  0  0  0
   10.0260    1.5991   -2.1326 H   0  0  0  0  0  0  0  0  0  0  0  0
   10.4628    2.6370   -4.3534 H   0  0  0  0  0  0  0  0  0  0  0  0
    9.6283    3.4504   -6.5258 H   0  0  0  0  0  0  0  0  0  0  0  0
    7.2124    3.2973   -7.0708 H   0  0  0  0  0  0  0  0  0  0  0  0
    5.6329    2.3308   -5.4464 H   0  0  0  0  0  0  0  0  0  0  0  0
    5.1961    1.2976   -3.2362 H   0  0  0  0  0  0  0  0  0  0  0  0
    2.8034    1.1795    2.6888 H   0  0  0  0  0  0  0  0  0  0  0  0
    3.2955    3.5559    2.7044 H   0  0  0  0  0  0  0  0  0  0  0  0
    4.9466    4.4989    1.1097 H   0  0  0  0  0  0  0  0  0  0  0  0
    6.0732    3.0466   -0.4812 H   0  0  0  0  0  0  0  0  0  0  0  0
    4.3460   -1.4369    3.6114 H   0  0  0  0  0  0  0  0  0  0  0  0
   -0.8827   -2.9177    4.7132 H   0  0  0  0  0  0  0  0  0  0  0  0
   -0.0983   -3.3037    6.9827 H   0  0  0  0  0  0  0  0  0  0  0  0
    2.2892   -2.9485    7.5658 H   0  0  0  0  0  0  0  0  0  0  0  0
    3.8654   -2.1690    5.8524 H   0  0  0  0  0  0  0  0  0  0  0  0
  1  2  2  0  0  0  0
  2 41  1  0  0  0  0
  2  4  1  0  0  0  0
  3  2  1  0  0  0  0
  4  5  1  0  0  0  0
  5 38  2  0  0  0  0
  6 31  2  0  0  0  0
  6  5  1  0  0  0  0
  7  6  1  0  0  0  0
  7 26  2  0  0  0  0
  8  7  1  0  0  0  0
  9 75  1  0  0  0  0
  9  8  2  0  0  0  0
 10  9  1  0  0  0  0
 11 10  2  0  0  0  0
 11 12  1  0  0  0  0
 12 13  2  0  0  0  0
 13  8  1  0  0  0  0
 13 14  1  0  0  0  0
 14 25  2  0  0  0  0
 15 14  1  0  0  0  0
 16 15  1  0  0  0  0
 16 79  1  0  0  0  0
 17 16  2  0  0  0  0
 18 17  1  0  0  0  0
 18 80  1  0  0  0  0
 19 18  2  0  0  0  0
 20 21  2  0  0  0  0
 20 19  1  0  0  0  0
 21 22  1  0  0  0  0
 22 23  2  0  0  0  0
 22 17  1  0  0  0  0
 23 24  1  0  0  0  0
 24 85  1  0  0  0  0
 24 15  2  0  0  0  0
 25 26  1  0  0  0  0
 25 30  1  0  0  0  0
 26 27  1  0  0  0  0
 27 86  1  0  0  0  0
 27 28  2  0  0  0  0
 28 87  1  0  0  0  0
 29 28  1  0  0  0  0
 29 88  1  0  0  0  0
 30 29  2  0  0  0  0
 31 32  1  0  0  0  0
 32 37  2  0  0  0  0
 32 33  1  0  0  0  0
 33 34  2  0  0  0  0
 34 35  1  0  0  0  0
 34 91  1  0  0  0  0
 35 92  1  0  0  0  0
 36 93  1  0  0  0  0
 36 35  2  0  0  0  0
 37 36  1  0  0  0  0
 38 33  1  0  0  0  0
 38 39  1  0  0  0  0
 39 69  2  0  0  0  0
 40 42  2  0  0  0  0
 40 39  1  0  0  0  0
 41 40  1  0  0  0  0
 42 67  1  0  0  0  0
 43 62  1  0  0  0  0
 43 42  1  0  0  0  0
 44 43  2  0  0  0  0
 45 44  1  0  0  0  0
 45 95  1  0  0  0  0
 46 96  1  0  0  0  0
 46 45  2  0  0  0  0
 47 48  2  0  0  0  0
 47 46  1  0  0  0  0
 48 49  1  0  0  0  0
 49 50  2  0  0  0  0
 49 44  1  0  0  0  0
 50 61  1  0  0  0  0
 51 52  1  0  0  0  0
 51 50  1  0  0  0  0
 52 99  1  0  0  0  0
 53100  1  0  0  0  0
 53 52  2  0  0  0  0
 54 53  1  0  0  0  0
 55101  1  0  0  0  0
 55 54  2  0  0  0  0
 56 55  1  0  0  0  0
 57 56  2  0  0  0  0
 57 58  1  0  0  0  0
 58 59  2  0  0  0  0
 59 54  1  0  0  0  0
 59 60  1  0  0  0  0
 60 51  2  0  0  0  0
 61 66  2  0  0  0  0
 61 62  1  0  0  0  0
 62 63  2  0  0  0  0
 63 64  1  0  0  0  0
 63106  1  0  0  0  0
 64107  1  0  0  0  0
 65 64  2  0  0  0  0
 66 65  1  0  0  0  0
 67110  1  0  0  0  0
 67 68  2  0  0  0  0
 68 73  1  0  0  0  0
 69 68  1  0  0  0  0
 69 70  1  0  0  0  0
 70 71  2  0  0  0  0
 71 72  1  0  0  0  0
 71112  1  0  0  0  0
 72113  1  0  0  0  0
 73114  1  0  0  0  0
 73 72  2  0  0  0  0
 74  3  1  0  0  0  0
 76 10  1  0  0  0  0
 77 11  1  0  0  0  0
 78 12  1  0  0  0  0
 81 19  1  0  0  0  0
 82 20  1  0  0  0  0
 83 21  1  0  0  0  0
 84 23  1  0  0  0  0
 89 30  1  0  0  0  0
 90 31  1  0  0  0  0
 94 37  1  0  0  0  0
 97 47  1  0  0  0  0
 98 48  1  0  0  0  0
102 56  1  0  0  0  0
103 57  1  0  0  0  0
104 58  1  0  0  0  0
105 60  1  0  0  0  0
108 65  1  0  0  0  0
109 66  1  0  0  0  0
111 70  1  0  0  0  0
M  END
$$$$
