O=P1(O)OC2=C(C3=CC(C4=C(C)C=C(C)C=C4C)=CC(C5=C(C)C=C(C)C=C5C)=C3)C=C6C(CCCC6)=C2C7=C(O1)C(C8=CC(C9=C(C)C=C(C)C=C9C)=CC(C%10=C(C)C=C(C)C=C%10C)=C8)=CC%11=C7CCCC%11
 OpenBabel09032010383D

142152  0  0  0  0  0  0  0  0999 V2000
    0.7216    0.4116   -1.2823 O   0  0  0  0  0  0  0  0  0  0  0  0
    0.1453   -0.1395   -0.0149 P   0  0  0  0  0  0  0  0  0  0  0  0
   -0.3928   -1.6407   -0.2310 O   0  0  0  0  0  0  0  0  0  0  0  0
   -1.1134    0.6678    0.5892 O   0  0  0  0  0  0  0  0  0  0  0  0
   -1.5819    0.3285    1.8417 C   0  0  0  0  0  0  0  0  0  0  0  0
   -2.8767   -0.2181    1.9083 C   0  0  0  0  0  0  0  0  0  0  0  0
   -3.7159   -0.3774    0.7097 C   0  0  0  0  0  0  0  0  0  0  0  0
   -4.1067   -1.6510    0.2705 C   0  0  0  0  0  0  0  0  0  0  0  0
   -4.8530   -1.8238   -0.9057 C   0  0  0  0  0  0  0  0  0  0  0  0
   -5.2022   -3.1744   -1.3782 C   0  0  0  0  0  0  0  0  0  0  0  0
   -6.4763   -3.7307   -1.1069 C   0  0  0  0  0  0  0  0  0  0  0  0
   -7.5220   -2.9642   -0.3383 C   0  0  0  0  0  0  0  0  0  0  0  0
   -6.7871   -5.0226   -1.5653 C   0  0  0  0  0  0  0  0  0  0  0  0
   -5.8557   -5.7768   -2.2841 C   0  0  0  0  0  0  0  0  0  0  0  0
   -6.1869   -7.1709   -2.7282 C   0  0  0  0  0  0  0  0  0  0  0  0
   -4.5923   -5.2355   -2.5349 C   0  0  0  0  0  0  0  0  0  0  0  0
   -4.2596   -3.9405   -2.1075 C   0  0  0  0  0  0  0  0  0  0  0  0
   -2.8810   -3.4138   -2.4167 C   0  0  0  0  0  0  0  0  0  0  0  0
   -5.2213   -0.6900   -1.6437 C   0  0  0  0  0  0  0  0  0  0  0  0
   -4.8546    0.5976   -1.2284 C   0  0  0  0  0  0  0  0  0  0  0  0
   -5.2142    1.7786   -2.0322 C   0  0  0  0  0  0  0  0  0  0  0  0
   -6.4851    2.3876   -1.8922 C   0  0  0  0  0  0  0  0  0  0  0  0
   -7.5082    1.8571   -0.9209 C   0  0  0  0  0  0  0  0  0  0  0  0
   -6.8133    3.5090   -2.6732 C   0  0  0  0  0  0  0  0  0  0  0  0
   -5.9052    4.0410   -3.5923 C   0  0  0  0  0  0  0  0  0  0  0  0
   -6.2575    5.2614   -4.3904 C   0  0  0  0  0  0  0  0  0  0  0  0
   -4.6431    3.4545   -3.7145 C   0  0  0  0  0  0  0  0  0  0  0  0
   -4.2891    2.3260   -2.9558 C   0  0  0  0  0  0  0  0  0  0  0  0
   -2.9121    1.7368   -3.1363 C   0  0  0  0  0  0  0  0  0  0  0  0
   -4.1092    0.7370   -0.0480 C   0  0  0  0  0  0  0  0  0  0  0  0
   -3.3421   -0.6332    3.1577 C   0  0  0  0  0  0  0  0  0  0  0  0
   -2.5366   -0.5491    4.3032 C   0  0  0  0  0  0  0  0  0  0  0  0
   -1.2387    0.0081    4.2124 C   0  0  0  0  0  0  0  0  0  0  0  0
   -0.3119   -0.0747    5.4183 C   0  0  0  0  0  0  0  0  0  0  0  0
   -0.7482   -1.1010    6.4631 C   0  0  0  0  0  0  0  0  0  0  0  0
   -2.2129   -0.8878    6.8069 C   0  0  0  0  0  0  0  0  0  0  0  0
   -3.0773   -1.1521    5.5802 C   0  0  0  0  0  0  0  0  0  0  0  0
   -0.7658    0.5531    2.9773 C   0  0  0  0  0  0  0  0  0  0  0  0
    0.4768    1.2647    2.8460 C   0  0  0  0  0  0  0  0  0  0  0  0
    1.4740    0.7853    1.9650 C   0  0  0  0  0  0  0  0  0  0  0  0
    1.1812   -0.3259    1.2047 O   0  0  0  0  0  0  0  0  0  0  0  0
    2.7526    1.3609    1.8267 C   0  0  0  0  0  0  0  0  0  0  0  0
    3.7508    0.8440    0.8677 C   0  0  0  0  0  0  0  0  0  0  0  0
    4.0462   -0.5251    0.7890 C   0  0  0  0  0  0  0  0  0  0  0  0
    4.8800   -1.0474   -0.2117 C   0  0  0  0  0  0  0  0  0  0  0  0
    5.0175   -2.5049   -0.3583 C   0  0  0  0  0  0  0  0  0  0  0  0
    4.1492   -3.2090   -1.2312 C   0  0  0  0  0  0  0  0  0  0  0  0
    3.1377   -2.4909   -2.0884 C   0  0  0  0  0  0  0  0  0  0  0  0
    4.2304   -4.6058   -1.3194 C   0  0  0  0  0  0  0  0  0  0  0  0
    5.1749   -5.3210   -0.5776 C   0  0  0  0  0  0  0  0  0  0  0  0
    5.2277   -6.8179   -0.6576 C   0  0  0  0  0  0  0  0  0  0  0  0
    6.0315   -4.6268    0.2820 C   0  0  0  0  0  0  0  0  0  0  0  0
    5.9705   -3.2278    0.3962 C   0  0  0  0  0  0  0  0  0  0  0  0
    6.9111   -2.5337    1.3468 C   0  0  0  0  0  0  0  0  0  0  0  0
    5.4911   -0.1653   -1.1099 C   0  0  0  0  0  0  0  0  0  0  0  0
    5.2509    1.2134   -1.0406 C   0  0  0  0  0  0  0  0  0  0  0  0
    5.8553    2.1310   -2.0216 C   0  0  0  0  0  0  0  0  0  0  0  0
    5.1364    2.5161   -3.1806 C   0  0  0  0  0  0  0  0  0  0  0  0
    3.7409    2.0085   -3.4480 C   0  0  0  0  0  0  0  0  0  0  0  0
    5.7213    3.3981   -4.1048 C   0  0  0  0  0  0  0  0  0  0  0  0
    7.0065    3.9078   -3.9038 C   0  0  0  0  0  0  0  0  0  0  0  0
    7.6310    4.8175   -4.9199 C   0  0  0  0  0  0  0  0  0  0  0  0
    7.7228    3.5125   -2.7712 C   0  0  0  0  0  0  0  0  0  0  0  0
    7.1616    2.6401   -1.8233 C   0  0  0  0  0  0  0  0  0  0  0  0
    7.9796    2.2580   -0.6163 C   0  0  0  0  0  0  0  0  0  0  0  0
    4.3785    1.6999   -0.0526 C   0  0  0  0  0  0  0  0  0  0  0  0
    3.0274    2.4911    2.6014 C   0  0  0  0  0  0  0  0  0  0  0  0
    2.0553    3.0702    3.4325 C   0  0  0  0  0  0  0  0  0  0  0  0
    0.7688    2.4888    3.5250 C   0  0  0  0  0  0  0  0  0  0  0  0
   -0.3296    3.2363    4.2695 C   0  0  0  0  0  0  0  0  0  0  0  0
   -0.0235    4.7156    4.4995 C   0  0  0  0  0  0  0  0  0  0  0  0
    1.3621    4.8611    5.1064 C   0  0  0  0  0  0  0  0  0  0  0  0
    2.4140    4.3686    4.1203 C   0  0  0  0  0  0  0  0  0  0  0  0
    0.2231   -2.1374   -0.7988 H   0  0  0  0  0  0  0  0  0  0  0  0
   -3.7937   -2.5310    0.8313 H   0  0  0  0  0  0  0  0  0  0  0  0
   -8.4064   -3.5800   -0.1417 H   0  0  0  0  0  0  0  0  0  0  0  0
   -7.8497   -2.0898   -0.9093 H   0  0  0  0  0  0  0  0  0  0  0  0
   -7.1305   -2.6450    0.6329 H   0  0  0  0  0  0  0  0  0  0  0  0
   -7.7676   -5.4470   -1.3558 H   0  0  0  0  0  0  0  0  0  0  0  0
   -5.9148   -7.8870   -1.9467 H   0  0  0  0  0  0  0  0  0  0  0  0
   -5.6481   -7.4272   -3.6465 H   0  0  0  0  0  0  0  0  0  0  0  0
   -7.2564   -7.2693   -2.9421 H   0  0  0  0  0  0  0  0  0  0  0  0
   -3.8549   -5.8253   -3.0762 H   0  0  0  0  0  0  0  0  0  0  0  0
   -2.3608   -4.0556   -3.1362 H   0  0  0  0  0  0  0  0  0  0  0  0
   -2.9330   -2.4162   -2.8641 H   0  0  0  0  0  0  0  0  0  0  0  0
   -2.2780   -3.3790   -1.5046 H   0  0  0  0  0  0  0  0  0  0  0  0
   -5.7855   -0.8131   -2.5674 H   0  0  0  0  0  0  0  0  0  0  0  0
   -7.8356    0.8566   -1.2205 H   0  0  0  0  0  0  0  0  0  0  0  0
   -7.0962    1.8224    0.0927 H   0  0  0  0  0  0  0  0  0  0  0  0
   -8.3965    2.4969   -0.8853 H   0  0  0  0  0  0  0  0  0  0  0  0
   -7.7907    3.9748   -2.5613 H   0  0  0  0  0  0  0  0  0  0  0  0
   -5.7421    5.2588   -5.3566 H   0  0  0  0  0  0  0  0  0  0  0  0
   -5.9732    6.1633   -3.8399 H   0  0  0  0  0  0  0  0  0  0  0  0
   -7.3324    5.2964   -4.5970 H   0  0  0  0  0  0  0  0  0  0  0  0
   -3.9238    3.8783   -4.4130 H   0  0  0  0  0  0  0  0  0  0  0  0
   -2.3149    1.8798   -2.2303 H   0  0  0  0  0  0  0  0  0  0  0  0
   -2.9751    0.6697   -3.3721 H   0  0  0  0  0  0  0  0  0  0  0  0
   -2.3773    2.2160   -3.9635 H   0  0  0  0  0  0  0  0  0  0  0  0
   -3.8077    1.7345    0.2708 H   0  0  0  0  0  0  0  0  0  0  0  0
   -4.3384   -1.0675    3.2364 H   0  0  0  0  0  0  0  0  0  0  0  0
    0.7007   -0.3405    5.0927 H   0  0  0  0  0  0  0  0  0  0  0  0
   -0.2614    0.8969    5.9117 H   0  0  0  0  0  0  0  0  0  0  0  0
   -0.1299   -0.9959    7.3616 H   0  0  0  0  0  0  0  0  0  0  0  0
   -0.5956   -2.1188    6.0825 H   0  0  0  0  0  0  0  0  0  0  0  0
   -2.3650    0.1406    7.1583 H   0  0  0  0  0  0  0  0  0  0  0  0
   -2.5155   -1.5534    7.6230 H   0  0  0  0  0  0  0  0  0  0  0  0
   -3.1568   -2.2368    5.4315 H   0  0  0  0  0  0  0  0  0  0  0  0
   -4.0877   -0.7702    5.7697 H   0  0  0  0  0  0  0  0  0  0  0  0
    3.5780   -1.2175    1.4883 H   0  0  0  0  0  0  0  0  0  0  0  0
    2.4964   -3.1959   -2.6283 H   0  0  0  0  0  0  0  0  0  0  0  0
    2.4820   -1.8695   -1.4728 H   0  0  0  0  0  0  0  0  0  0  0  0
    3.6433   -1.8688   -2.8336 H   0  0  0  0  0  0  0  0  0  0  0  0
    3.5527   -5.1432   -1.9797 H   0  0  0  0  0  0  0  0  0  0  0  0
    4.5585   -7.2562    0.0891 H   0  0  0  0  0  0  0  0  0  0  0  0
    4.9274   -7.1673   -1.6510 H   0  0  0  0  0  0  0  0  0  0  0  0
    6.2447   -7.1833   -0.4797 H   0  0  0  0  0  0  0  0  0  0  0  0
    6.7572   -5.1832    0.8732 H   0  0  0  0  0  0  0  0  0  0  0  0
    7.4620   -1.7389    0.8337 H   0  0  0  0  0  0  0  0  0  0  0  0
    6.3560   -2.1114    2.1903 H   0  0  0  0  0  0  0  0  0  0  0  0
    7.6546   -3.2283    1.7525 H   0  0  0  0  0  0  0  0  0  0  0  0
    6.1330   -0.5590   -1.8965 H   0  0  0  0  0  0  0  0  0  0  0  0
    3.7200    0.9141   -3.4445 H   0  0  0  0  0  0  0  0  0  0  0  0
    3.3787    2.3328   -4.4296 H   0  0  0  0  0  0  0  0  0  0  0  0
    3.0446    2.3938   -2.6966 H   0  0  0  0  0  0  0  0  0  0  0  0
    5.1653    3.6897   -4.9940 H   0  0  0  0  0  0  0  0  0  0  0  0
    8.1653    4.2282   -5.6714 H   0  0  0  0  0  0  0  0  0  0  0  0
    6.8700    5.4248   -5.4212 H   0  0  0  0  0  0  0  0  0  0  0  0
    8.3356    5.5086   -4.4452 H   0  0  0  0  0  0  0  0  0  0  0  0
    8.7319    3.8916   -2.6209 H   0  0  0  0  0  0  0  0  0  0  0  0
    8.2173    1.1899   -0.6395 H   0  0  0  0  0  0  0  0  0  0  0  0
    8.9276    2.8058   -0.5850 H   0  0  0  0  0  0  0  0  0  0  0  0
    7.4403    2.4960    0.3061 H   0  0  0  0  0  0  0  0  0  0  0  0
    4.1540    2.7661   -0.0383 H   0  0  0  0  0  0  0  0  0  0  0  0
    4.0071    2.9631    2.5284 H   0  0  0  0  0  0  0  0  0  0  0  0
   -0.4892    2.7776    5.2463 H   0  0  0  0  0  0  0  0  0  0  0  0
   -1.2698    3.1737    3.7092 H   0  0  0  0  0  0  0  0  0  0  0  0
   -0.7765    5.1468    5.1687 H   0  0  0  0  0  0  0  0  0  0  0  0
   -0.0788    5.2668    3.5523 H   0  0  0  0  0  0  0  0  0  0  0  0
    1.4211    4.2833    6.0375 H   0  0  0  0  0  0  0  0  0  0  0  0
    1.5588    5.9074    5.3654 H   0  0  0  0  0  0  0  0  0  0  0  0
    2.5540    5.1320    3.3439 H   0  0  0  0  0  0  0  0  0  0  0  0
    3.3689    4.2551    4.6475 H   0  0  0  0  0  0  0  0  0  0  0  0
  1  2  2  0  0  0  0
  2  4  1  0  0  0  0
  2 41  1  0  0  0  0
  3  2  1  0  0  0  0
  4  5  1  0  0  0  0
  5  6  2  0  0  0  0
  5 38  1  0  0  0  0
  6 31  1  0  0  0  0
  7  6  1  0  0  0  0
  8  7  1  0  0  0  0
  8 75  1  0  0  0  0
  9  8  2  0  0  0  0
 10 11  1  0  0  0  0
 10  9  1  0  0  0  0
 11 12  1  0  0  0  0
 12 76  1  0  0  0  0
 12 78  1  0  0  0  0
 13 79  1  0  0  0  0
 13 11  2  0  0  0  0
 14 13  1  0  0  0  0
 15 14  1  0  0  0  0
 15 80  1  0  0  0  0
 16 14  2  0  0  0  0
 16 17  1  0  0  0  0
 17 10  2  0  0  0  0
 18 17  1  0  0  0  0
 18 86  1  0  0  0  0
 19 20  2  0  0  0  0
 19  9  1  0  0  0  0
 20 30  1  0  0  0  0
 21 22  1  0  0  0  0
 21 20  1  0  0  0  0
 22 23  1  0  0  0  0
 23 90  1  0  0  0  0
 23 89  1  0  0  0  0
 24 91  1  0  0  0  0
 24 22  2  0  0  0  0
 25 24  1  0  0  0  0
 26 93  1  0  0  0  0
 26 25  1  0  0  0  0
 27 25  2  0  0  0  0
 27 28  1  0  0  0  0
 28 21  2  0  0  0  0
 29 28  1  0  0  0  0
 29 96  1  0  0  0  0
 30 99  1  0  0  0  0
 30  7  2  0  0  0  0
 31100  1  0  0  0  0
 31 32  2  0  0  0  0
 32 37  1  0  0  0  0
 33 32  1  0  0  0  0
 33 34  1  0  0  0  0
 34102  1  0  0  0  0
 34 35  1  0  0  0  0
 35 36  1  0  0  0  0
 35103  1  0  0  0  0
 36105  1  0  0  0  0
 36106  1  0  0  0  0
 37108  1  0  0  0  0
 37 36  1  0  0  0  0
 38 33  2  0  0  0  0
 39 38  1  0  0  0  0
 39 69  2  0  0  0  0
 40 39  1  0  0  0  0
 41 40  1  0  0  0  0
 42 40  2  0  0  0  0
 42 67  1  0  0  0  0
 43 42  1  0  0  0  0
 44 43  1  0  0  0  0
 44109  1  0  0  0  0
 45 44  2  0  0  0  0
 46 45  1  0  0  0  0
 46 53  2  0  0  0  0
 47 46  1  0  0  0  0
 48111  1  0  0  0  0
 48 47  1  0  0  0  0
 49 47  2  0  0  0  0
 49 50  1  0  0  0  0
 50 52  2  0  0  0  0
 51 50  1  0  0  0  0
 51116  1  0  0  0  0
 51114  1  0  0  0  0
 52 53  1  0  0  0  0
 52117  1  0  0  0  0
 53 54  1  0  0  0  0
 54120  1  0  0  0  0
 54119  1  0  0  0  0
 55 56  2  0  0  0  0
 55 45  1  0  0  0  0
 56 66  1  0  0  0  0
 57 64  1  0  0  0  0
 57 56  1  0  0  0  0
 58 57  2  0  0  0  0
 59122  1  0  0  0  0
 59 58  1  0  0  0  0
 59124  1  0  0  0  0
 60 61  2  0  0  0  0
 60 58  1  0  0  0  0
 61 63  1  0  0  0  0
 62128  1  0  0  0  0
 62 61  1  0  0  0  0
 63129  1  0  0  0  0
 63 64  2  0  0  0  0
 64 65  1  0  0  0  0
 65131  1  0  0  0  0
 65132  1  0  0  0  0
 66133  1  0  0  0  0
 66 43  2  0  0  0  0
 67 68  2  0  0  0  0
 68 69  1  0  0  0  0
 68 73  1  0  0  0  0
 69 70  1  0  0  0  0
 70 71  1  0  0  0  0
 70135  1  0  0  0  0
 71 72  1  0  0  0  0
 71137  1  0  0  0  0
 72140  1  0  0  0  0
 72139  1  0  0  0  0
 73142  1  0  0  0  0
 73 72  1  0  0  0  0
 74  3  1  0  0  0  0
 77 12  1  0  0  0  0
 81 15  1  0  0  0  0
 82 15  1  0  0  0  0
 83 16  1  0  0  0  0
 84 18  1  0  0  0  0
 85 18  1  0  0  0  0
 87 19  1  0  0  0  0
 88 23  1  0  0  0  0
 92 26  1  0  0  0  0
 94 26  1  0  0  0  0
 95 27  1  0  0  0  0
 97 29  1  0  0  0  0
 98 29  1  0  0  0  0
101 34  1  0  0  0  0
104 35  1  0  0  0  0
107 37  1  0  0  0  0
110 48  1  0  0  0  0
112 48  1  0  0  0  0
113 49  1  0  0  0  0
115 51  1  0  0  0  0
118 54  1  0  0  0  0
121 55  1  0  0  0  0
123 59  1  0  0  0  0
125 60  1  0  0  0  0
126 62  1  0  0  0  0
127 62  1  0  0  0  0
130 65  1  0  0  0  0
134 67  1  0  0  0  0
136 70  1  0  0  0  0
138 71  1  0  0  0  0
141 73  1  0  0  0  0
M  END
$$$$
