O=P1(O)OC2=C([Si](C3=CC=CC=C3)(C4=CC=CC=C4)C5=CC=CC=C5)C=C6C(C=CC=C6)=C2C7=C(O1)C([Si](C8=CC=CC=C8)(C9=CC=CC=C9)C%10=CC=CC=C%10)=CC%11=C7C=CC=C%11
 OpenBabel09032010383D

104114  0  0  0  0  0  0  0  0999 V2000
    0.7715    1.9450    1.5858 O   0  0  0  0  0  0  0  0  0  0  0  0
    0.0040    1.1886    0.5466 P   0  0  0  0  0  0  0  0  0  0  0  0
   -1.0177    2.1278   -0.2682 O   0  0  0  0  0  0  0  0  0  0  0  0
    0.8848    0.5708   -0.6518 O   0  0  0  0  0  0  0  0  0  0  0  0
    1.6339   -0.5419   -0.3824 C   0  0  0  0  0  0  0  0  0  0  0  0
    3.0363   -0.4148   -0.4063 C   0  0  0  0  0  0  0  0  0  0  0  0
    3.9798    1.1567   -0.8297 Si  0  0  0  0  0  0  0  0  0  0  0  0
    5.0831    0.6883   -2.2859 C   0  0  0  0  0  0  0  0  0  0  0  0
    4.5723   -0.1004   -3.3400 C   0  0  0  0  0  0  0  0  0  0  0  0
    5.3679   -0.4645   -4.4302 C   0  0  0  0  0  0  0  0  0  0  0  0
    6.6946   -0.0537   -4.4932 C   0  0  0  0  0  0  0  0  0  0  0  0
    7.2268    0.7162   -3.4645 C   0  0  0  0  0  0  0  0  0  0  0  0
    6.4318    1.0799   -2.3720 C   0  0  0  0  0  0  0  0  0  0  0  0
    5.0324    1.7161    0.6167 C   0  0  0  0  0  0  0  0  0  0  0  0
    5.1037    0.9935    1.8232 C   0  0  0  0  0  0  0  0  0  0  0  0
    5.8968    1.4339    2.8888 C   0  0  0  0  0  0  0  0  0  0  0  0
    6.6256    2.6134    2.7807 C   0  0  0  0  0  0  0  0  0  0  0  0
    6.5585    3.3590    1.6096 C   0  0  0  0  0  0  0  0  0  0  0  0
    5.7714    2.9178    0.5425 C   0  0  0  0  0  0  0  0  0  0  0  0
    2.8733    2.5775   -1.3420 C   0  0  0  0  0  0  0  0  0  0  0  0
    2.3785    2.7013   -2.6548 C   0  0  0  0  0  0  0  0  0  0  0  0
    1.5426    3.7624   -3.0223 C   0  0  0  0  0  0  0  0  0  0  0  0
    1.1797    4.7276   -2.0887 C   0  0  0  0  0  0  0  0  0  0  0  0
    1.6502    4.6314   -0.7848 C   0  0  0  0  0  0  0  0  0  0  0  0
    2.4854    3.5710   -0.4176 C   0  0  0  0  0  0  0  0  0  0  0  0
    3.7708   -1.5843   -0.1408 C   0  0  0  0  0  0  0  0  0  0  0  0
    3.1532   -2.7978    0.1828 C   0  0  0  0  0  0  0  0  0  0  0  0
    1.7392   -2.8974    0.1855 C   0  0  0  0  0  0  0  0  0  0  0  0
    1.1957   -4.1393    0.6028 C   0  0  0  0  0  0  0  0  0  0  0  0
    1.9959   -5.2342    0.9393 C   0  0  0  0  0  0  0  0  0  0  0  0
    3.3756   -5.1215    0.8819 C   0  0  0  0  0  0  0  0  0  0  0  0
    3.9495   -3.9089    0.5102 C   0  0  0  0  0  0  0  0  0  0  0  0
    0.9344   -1.7641   -0.1852 C   0  0  0  0  0  0  0  0  0  0  0  0
   -0.5032   -1.8369   -0.4117 C   0  0  0  0  0  0  0  0  0  0  0  0
   -1.4137   -0.9674    0.2668 C   0  0  0  0  0  0  0  0  0  0  0  0
   -0.8990   -0.0182    1.1126 O   0  0  0  0  0  0  0  0  0  0  0  0
   -2.8177   -1.0837    0.2032 C   0  0  0  0  0  0  0  0  0  0  0  0
   -4.0629   -0.0459    1.1554 Si  0  0  0  0  0  0  0  0  0  0  0  0
   -5.3433    0.4900   -0.1167 C   0  0  0  0  0  0  0  0  0  0  0  0
   -4.9284    1.0939   -1.3237 C   0  0  0  0  0  0  0  0  0  0  0  0
   -5.8532    1.4818   -2.2973 C   0  0  0  0  0  0  0  0  0  0  0  0
   -7.2128    1.2716   -2.0916 C   0  0  0  0  0  0  0  0  0  0  0  0
   -7.6476    0.6729   -0.9129 C   0  0  0  0  0  0  0  0  0  0  0  0
   -6.7241    0.2844    0.0637 C   0  0  0  0  0  0  0  0  0  0  0  0
   -4.8942   -1.0919    2.4763 C   0  0  0  0  0  0  0  0  0  0  0  0
   -4.6867   -2.4796    2.5874 C   0  0  0  0  0  0  0  0  0  0  0  0
   -5.3212   -3.2293    3.5841 C   0  0  0  0  0  0  0  0  0  0  0  0
   -6.1712   -2.6105    4.4953 C   0  0  0  0  0  0  0  0  0  0  0  0
   -6.3843   -1.2389    4.4165 C   0  0  0  0  0  0  0  0  0  0  0  0
   -5.7520   -0.4878    3.4217 C   0  0  0  0  0  0  0  0  0  0  0  0
   -3.3600    1.4455    2.0228 C   0  0  0  0  0  0  0  0  0  0  0  0
   -2.6211    1.2978    3.2164 C   0  0  0  0  0  0  0  0  0  0  0  0
   -2.0714    2.4008    3.8766 C   0  0  0  0  0  0  0  0  0  0  0  0
   -2.2544    3.6814    3.3675 C   0  0  0  0  0  0  0  0  0  0  0  0
   -2.9972    3.8603    2.2061 C   0  0  0  0  0  0  0  0  0  0  0  0
   -3.5472    2.7569    1.5444 C   0  0  0  0  0  0  0  0  0  0  0  0
   -3.3246   -2.0732   -0.6605 C   0  0  0  0  0  0  0  0  0  0  0  0
   -2.4981   -2.8989   -1.4269 C   0  0  0  0  0  0  0  0  0  0  0  0
   -1.0901   -2.7826   -1.3281 C   0  0  0  0  0  0  0  0  0  0  0  0
   -0.3380   -3.6026   -2.2112 C   0  0  0  0  0  0  0  0  0  0  0  0
   -0.9308   -4.5215   -3.0828 C   0  0  0  0  0  0  0  0  0  0  0  0
   -2.3091   -4.6432   -3.1200 C   0  0  0  0  0  0  0  0  0  0  0  0
   -3.0867   -3.8301   -2.3015 C   0  0  0  0  0  0  0  0  0  0  0  0
   -0.5938    2.9960   -0.4025 H   0  0  0  0  0  0  0  0  0  0  0  0
    3.5393   -0.4492   -3.3277 H   0  0  0  0  0  0  0  0  0  0  0  0
    4.9484   -1.0721   -5.2279 H   0  0  0  0  0  0  0  0  0  0  0  0
    7.3143   -0.3367   -5.3394 H   0  0  0  0  0  0  0  0  0  0  0  0
    8.2657    1.0343   -3.5061 H   0  0  0  0  0  0  0  0  0  0  0  0
    6.9012    1.6704   -1.5892 H   0  0  0  0  0  0  0  0  0  0  0  0
    4.5354    0.0772    1.9716 H   0  0  0  0  0  0  0  0  0  0  0  0
    5.9370    0.8556    3.8088 H   0  0  0  0  0  0  0  0  0  0  0  0
    7.2354    2.9551    3.6120 H   0  0  0  0  0  0  0  0  0  0  0  0
    7.1130    4.2895    1.5240 H   0  0  0  0  0  0  0  0  0  0  0  0
    5.7401    3.5379   -0.3545 H   0  0  0  0  0  0  0  0  0  0  0  0
    2.6313    1.9721   -3.4224 H   0  0  0  0  0  0  0  0  0  0  0  0
    1.1815    3.8334   -4.0458 H   0  0  0  0  0  0  0  0  0  0  0  0
    0.5402    5.5562   -2.3810 H   0  0  0  0  0  0  0  0  0  0  0  0
    1.3745    5.3794   -0.0447 H   0  0  0  0  0  0  0  0  0  0  0  0
    2.8167    3.5302    0.6221 H   0  0  0  0  0  0  0  0  0  0  0  0
    4.8628   -1.5499   -0.1621 H   0  0  0  0  0  0  0  0  0  0  0  0
    0.1177   -4.2678    0.6843 H   0  0  0  0  0  0  0  0  0  0  0  0
    1.5347   -6.1681    1.2487 H   0  0  0  0  0  0  0  0  0  0  0  0
    4.0062   -5.9674    1.1402 H   0  0  0  0  0  0  0  0  0  0  0  0
    5.0354   -3.8338    0.4914 H   0  0  0  0  0  0  0  0  0  0  0  0
   -3.8703    1.2689   -1.5240 H   0  0  0  0  0  0  0  0  0  0  0  0
   -5.5054    1.9443   -3.2175 H   0  0  0  0  0  0  0  0  0  0  0  0
   -7.9333    1.5692   -2.8491 H   0  0  0  0  0  0  0  0  0  0  0  0
   -8.7096    0.5016   -0.7518 H   0  0  0  0  0  0  0  0  0  0  0  0
   -7.1128   -0.1912    0.9622 H   0  0  0  0  0  0  0  0  0  0  0  0
   -4.0207   -3.0095    1.9089 H   0  0  0  0  0  0  0  0  0  0  0  0
   -5.1453   -4.3002    3.6492 H   0  0  0  0  0  0  0  0  0  0  0  0
   -6.6608   -3.1956    5.2690 H   0  0  0  0  0  0  0  0  0  0  0  0
   -7.0395   -0.7477    5.1311 H   0  0  0  0  0  0  0  0  0  0  0  0
   -5.9401    0.5864    3.3974 H   0  0  0  0  0  0  0  0  0  0  0  0
   -2.4466    0.3102    3.6450 H   0  0  0  0  0  0  0  0  0  0  0  0
   -1.4916    2.2540    4.7842 H   0  0  0  0  0  0  0  0  0  0  0  0
   -1.8169    4.5368    3.8743 H   0  0  0  0  0  0  0  0  0  0  0  0
   -3.1459    4.8598    1.8061 H   0  0  0  0  0  0  0  0  0  0  0  0
   -4.1160    2.9507    0.6372 H   0  0  0  0  0  0  0  0  0  0  0  0
   -4.4061   -2.1980   -0.7592 H   0  0  0  0  0  0  0  0  0  0  0  0
    0.7470   -3.5265   -2.2437 H   0  0  0  0  0  0  0  0  0  0  0  0
   -0.3084   -5.1318   -3.7310 H   0  0  0  0  0  0  0  0  0  0  0  0
   -2.7813   -5.3533   -3.7931 H   0  0  0  0  0  0  0  0  0  0  0  0
   -4.1703   -3.9204   -2.3623 H   0  0  0  0  0  0  0  0  0  0  0  0
  2 36  1  0  0  0  0
  2  1  2  0  0  0  0
  3  2  1  0  0  0  0
  4  5  1  0  0  0  0
  4  2  1  0  0  0  0
  5 33  1  0  0  0  0
  6  5  2  0  0  0  0
  6 26  1  0  0  0  0
  7  6  1  0  0  0  0
  7 14  1  0  0  0  0
  8  7  1  0  0  0  0
  9 65  1  0  0  0  0
  9  8  2  0  0  0  0
 10  9  1  0  0  0  0
 11 10  2  0  0  0  0
 11 12  1  0  0  0  0
 12 13  2  0  0  0  0
 13  8  1  0  0  0  0
 13 69  1  0  0  0  0
 14 15  1  0  0  0  0
 15 70  1  0  0  0  0
 15 16  2  0  0  0  0
 16 71  1  0  0  0  0
 17 16  1  0  0  0  0
 17 72  1  0  0  0  0
 18 17  2  0  0  0  0
 19 14  2  0  0  0  0
 19 18  1  0  0  0  0
 20  7  1  0  0  0  0
 20 25  2  0  0  0  0
 21 20  1  0  0  0  0
 22 21  2  0  0  0  0
 22 23  1  0  0  0  0
 23 24  2  0  0  0  0
 24 25  1  0  0  0  0
 24 78  1  0  0  0  0
 25 79  1  0  0  0  0
 26 27  2  0  0  0  0
 27 28  1  0  0  0  0
 27 32  1  0  0  0  0
 28 29  1  0  0  0  0
 29 81  1  0  0  0  0
 29 30  2  0  0  0  0
 30 82  1  0  0  0  0
 31 30  1  0  0  0  0
 31 83  1  0  0  0  0
 32 31  2  0  0  0  0
 33 28  2  0  0  0  0
 34 33  1  0  0  0  0
 34 35  2  0  0  0  0
 35 36  1  0  0  0  0
 37 35  1  0  0  0  0
 37 38  1  0  0  0  0
 38 51  1  0  0  0  0
 38 45  1  0  0  0  0
 39 44  1  0  0  0  0
 39 38  1  0  0  0  0
 40 39  2  0  0  0  0
 41 42  2  0  0  0  0
 41 40  1  0  0  0  0
 42 43  1  0  0  0  0
 43 88  1  0  0  0  0
 43 44  2  0  0  0  0
 44 89  1  0  0  0  0
 45 46  2  0  0  0  0
 45 50  1  0  0  0  0
 46 47  1  0  0  0  0
 47 91  1  0  0  0  0
 47 48  2  0  0  0  0
 48 92  1  0  0  0  0
 49 48  1  0  0  0  0
 49 93  1  0  0  0  0
 50 49  2  0  0  0  0
 51 52  1  0  0  0  0
 52 95  1  0  0  0  0
 52 53  2  0  0  0  0
 53 96  1  0  0  0  0
 54 97  1  0  0  0  0
 54 53  1  0  0  0  0
 55 54  2  0  0  0  0
 56 51  2  0  0  0  0
 56 55  1  0  0  0  0
 57 37  2  0  0  0  0
 58 59  1  0  0  0  0
 58 57  1  0  0  0  0
 59 34  1  0  0  0  0
 60 59  2  0  0  0  0
 61 60  1  0  0  0  0
 62 61  2  0  0  0  0
 62 63  1  0  0  0  0
 63 58  2  0  0  0  0
 64  3  1  0  0  0  0
 66 10  1  0  0  0  0
 67 11  1  0  0  0  0
 68 12  1  0  0  0  0
 73 18  1  0  0  0  0
 74 19  1  0  0  0  0
 75 21  1  0  0  0  0
 76 22  1  0  0  0  0
 77 23  1  0  0  0  0
 80 26  1  0  0  0  0
 84 32  1  0  0  0  0
 85 40  1  0  0  0  0
 86 41  1  0  0  0  0
 87 42  1  0  0  0  0
 90 46  1  0  0  0  0
 94 50  1  0  0  0  0
 98 55  1  0  0  0  0
 99 56  1  0  0  0  0
100 57  1  0  0  0  0
101 60  1  0  0  0  0
102 61  1  0  0  0  0
103 62  1  0  0  0  0
104 63  1  0  0  0  0
M  END
$$$$
