O=P1(O)OC2=C(C3=CC=CC=C3)C=C4C(C=CC=C4)=C2C5=C(O1)C(C6=CC=CC=C6)=CC7=C5C=CC=C7
 OpenBabel09032010373D

 58 64  0  0  0  0  0  0  0  0999 V2000
    0.7398   -3.0758   -1.4148 O   0  0  0  0  0  0  0  0  0  0  0  0
   -0.0209   -2.1864   -0.4818 P   0  0  0  0  0  0  0  0  0  0  0  0
   -1.1177   -3.0089    0.3607 O   0  0  0  0  0  0  0  0  0  0  0  0
   -0.8916   -1.0412   -1.2057 O   0  0  0  0  0  0  0  0  0  0  0  0
   -1.4800   -0.0636   -0.4335 C   0  0  0  0  0  0  0  0  0  0  0  0
   -2.8853   -0.0767   -0.3661 C   0  0  0  0  0  0  0  0  0  0  0  0
   -3.6944   -1.1145   -1.0279 C   0  0  0  0  0  0  0  0  0  0  0  0
   -4.4823   -1.9983   -0.2717 C   0  0  0  0  0  0  0  0  0  0  0  0
   -5.2387   -2.9958   -0.8915 C   0  0  0  0  0  0  0  0  0  0  0  0
   -5.2192   -3.1240   -2.2781 C   0  0  0  0  0  0  0  0  0  0  0  0
   -4.4453   -2.2562   -3.0450 C   0  0  0  0  0  0  0  0  0  0  0  0
   -3.6899   -1.2588   -2.4243 C   0  0  0  0  0  0  0  0  0  0  0  0
   -3.5089    0.9285    0.3745 C   0  0  0  0  0  0  0  0  0  0  0  0
   -2.7696    1.8958    1.0619 C   0  0  0  0  0  0  0  0  0  0  0  0
   -1.3499    1.8889    0.9993 C   0  0  0  0  0  0  0  0  0  0  0  0
   -0.6847    2.8399    1.8150 C   0  0  0  0  0  0  0  0  0  0  0  0
   -1.3704    3.7834    2.5849 C   0  0  0  0  0  0  0  0  0  0  0  0
   -2.7554    3.7986    2.5835 C   0  0  0  0  0  0  0  0  0  0  0  0
   -3.4494    2.8549    1.8322 C   0  0  0  0  0  0  0  0  0  0  0  0
   -0.6634    0.9153    0.1852 C   0  0  0  0  0  0  0  0  0  0  0  0
    0.7728    0.8947   -0.0115 C   0  0  0  0  0  0  0  0  0  0  0  0
    1.5087   -0.2846    0.2684 C   0  0  0  0  0  0  0  0  0  0  0  0
    0.8333   -1.4235    0.6512 O   0  0  0  0  0  0  0  0  0  0  0  0
    2.9112   -0.3530    0.2462 C   0  0  0  0  0  0  0  0  0  0  0  0
    3.6437   -1.5697    0.6157 C   0  0  0  0  0  0  0  0  0  0  0  0
    4.1091   -1.7502    1.9270 C   0  0  0  0  0  0  0  0  0  0  0  0
    4.8132   -2.9026    2.2822 C   0  0  0  0  0  0  0  0  0  0  0  0
    5.0598   -3.8896    1.3303 C   0  0  0  0  0  0  0  0  0  0  0  0
    4.6028   -3.7255    0.0244 C   0  0  0  0  0  0  0  0  0  0  0  0
    3.9006   -2.5718   -0.3310 C   0  0  0  0  0  0  0  0  0  0  0  0
    3.6182    0.7902   -0.1282 C   0  0  0  0  0  0  0  0  0  0  0  0
    2.9587    1.9643   -0.5020 C   0  0  0  0  0  0  0  0  0  0  0  0
    1.5396    2.0276   -0.4684 C   0  0  0  0  0  0  0  0  0  0  0  0
    0.9544    3.2254   -0.9521 C   0  0  0  0  0  0  0  0  0  0  0  0
    1.7169    4.3159   -1.3791 C   0  0  0  0  0  0  0  0  0  0  0  0
    3.1001    4.2415   -1.3549 C   0  0  0  0  0  0  0  0  0  0  0  0
    3.7159    3.0697   -0.9253 C   0  0  0  0  0  0  0  0  0  0  0  0
   -1.5852   -3.6362   -0.2202 H   0  0  0  0  0  0  0  0  0  0  0  0
   -4.5004   -1.9200    0.8140 H   0  0  0  0  0  0  0  0  0  0  0  0
   -5.8423   -3.6709   -0.2903 H   0  0  0  0  0  0  0  0  0  0  0  0
   -5.8088   -3.8985   -2.7619 H   0  0  0  0  0  0  0  0  0  0  0  0
   -4.4278   -2.3526   -4.1276 H   0  0  0  0  0  0  0  0  0  0  0  0
   -3.0897   -0.5903   -3.0392 H   0  0  0  0  0  0  0  0  0  0  0  0
   -4.5972    0.9413    0.4299 H   0  0  0  0  0  0  0  0  0  0  0  0
    0.4021    2.8515    1.8753 H   0  0  0  0  0  0  0  0  0  0  0  0
   -0.8144    4.4969    3.1873 H   0  0  0  0  0  0  0  0  0  0  0  0
   -3.2965    4.5283    3.1795 H   0  0  0  0  0  0  0  0  0  0  0  0
   -4.5375    2.8651    1.8659 H   0  0  0  0  0  0  0  0  0  0  0  0
    3.9164   -0.9911    2.6822 H   0  0  0  0  0  0  0  0  0  0  0  0
    5.1633   -3.0298    3.3029 H   0  0  0  0  0  0  0  0  0  0  0  0
    5.6034   -4.7889    1.6066 H   0  0  0  0  0  0  0  0  0  0  0  0
    4.7849   -4.4967   -0.7193 H   0  0  0  0  0  0  0  0  0  0  0  0
    3.5424   -2.4647   -1.3535 H   0  0  0  0  0  0  0  0  0  0  0  0
    4.7070    0.7477   -0.1507 H   0  0  0  0  0  0  0  0  0  0  0  0
   -0.1279    3.3236   -1.0169 H   0  0  0  0  0  0  0  0  0  0  0  0
    1.2223    5.2159   -1.7346 H   0  0  0  0  0  0  0  0  0  0  0  0
    3.7009    5.0843   -1.6854 H   0  0  0  0  0  0  0  0  0  0  0  0
    4.8034    3.0210   -0.9371 H   0  0  0  0  0  0  0  0  0  0  0  0
  1  2  2  0  0  0  0
  2  3  1  0  0  0  0
  2 23  1  0  0  0  0
  4  2  1  0  0  0  0
  4  5  1  0  0  0  0
  5  6  2  0  0  0  0
  5 20  1  0  0  0  0
  6 13  1  0  0  0  0
  7  6  1  0  0  0  0
  7  8  2  0  0  0  0
  8 39  1  0  0  0  0
  9 40  1  0  0  0  0
  9  8  1  0  0  0  0
 10  9  2  0  0  0  0
 11 12  2  0  0  0  0
 11 10  1  0  0  0  0
 12  7  1  0  0  0  0
 13 44  1  0  0  0  0
 13 14  2  0  0  0  0
 14 19  1  0  0  0  0
 15 14  1  0  0  0  0
 15 16  1  0  0  0  0
 16 45  1  0  0  0  0
 16 17  2  0  0  0  0
 17 46  1  0  0  0  0
 18 17  1  0  0  0  0
 18 47  1  0  0  0  0
 19 48  1  0  0  0  0
 19 18  2  0  0  0  0
 20 15  2  0  0  0  0
 21 20  1  0  0  0  0
 21 22  2  0  0  0  0
 22 23  1  0  0  0  0
 24 22  1  0  0  0  0
 24 25  1  0  0  0  0
 25 26  2  0  0  0  0
 26 27  1  0  0  0  0
 26 49  1  0  0  0  0
 27 50  1  0  0  0  0
 28 51  1  0  0  0  0
 28 27  2  0  0  0  0
 29 28  1  0  0  0  0
 30 29  2  0  0  0  0
 30 25  1  0  0  0  0
 31 24  2  0  0  0  0
 32 33  1  0  0  0  0
 32 31  1  0  0  0  0
 33 21  1  0  0  0  0
 34 33  2  0  0  0  0
 35 36  2  0  0  0  0
 35 34  1  0  0  0  0
 36 37  1  0  0  0  0
 37 32  2  0  0  0  0
 38  3  1  0  0  0  0
 41 10  1  0  0  0  0
 42 11  1  0  0  0  0
 43 12  1  0  0  0  0
 52 29  1  0  0  0  0
 53 30  1  0  0  0  0
 54 31  1  0  0  0  0
 55 34  1  0  0  0  0
 56 35  1  0  0  0  0
 57 36  1  0  0  0  0
 58 37  1  0  0  0  0
M  END
$$$$
