O=P1(O)OC2=C(CC)C=C3C(CCCC3)=C2C4=C(O1)C(CC)=CC5=C4CCCC5
 OpenBabel09032010373D

 58 62  0  0  0  0  0  0  0  0999 V2000
    1.5622    4.0057    0.9798 O   0  0  0  0  0  0  0  0  0  0  0  0
    0.6217    3.1668    0.1698 P   0  0  0  0  0  0  0  0  0  0  0  0
   -0.2204    4.1175   -0.8196 O   0  0  0  0  0  0  0  0  0  0  0  0
    1.3189    2.1234   -0.8397 O   0  0  0  0  0  0  0  0  0  0  0  0
    1.7257    0.9215   -0.3160 C   0  0  0  0  0  0  0  0  0  0  0  0
    3.1034    0.6648   -0.2685 C   0  0  0  0  0  0  0  0  0  0  0  0
    4.1287    1.6467   -0.7827 C   0  0  0  0  0  0  0  0  0  0  0  0
    4.8184    2.4028    0.3435 C   0  0  0  0  0  0  0  0  0  0  0  0
    3.5314   -0.5381    0.2951 C   0  0  0  0  0  0  0  0  0  0  0  0
    2.6171   -1.4552    0.8288 C   0  0  0  0  0  0  0  0  0  0  0  0
    1.2306   -1.1805    0.7682 C   0  0  0  0  0  0  0  0  0  0  0  0
    0.2568   -2.1199    1.4709 C   0  0  0  0  0  0  0  0  0  0  0  0
    0.9130   -3.0377    2.5008 C   0  0  0  0  0  0  0  0  0  0  0  0
    2.1239   -3.7178    1.8848 C   0  0  0  0  0  0  0  0  0  0  0  0
    3.1753   -2.6755    1.5250 C   0  0  0  0  0  0  0  0  0  0  0  0
    0.7457   -0.0061    0.1066 C   0  0  0  0  0  0  0  0  0  0  0  0
   -0.6536    0.2523   -0.1133 C   0  0  0  0  0  0  0  0  0  0  0  0
   -1.2662    1.4197    0.4063 C   0  0  0  0  0  0  0  0  0  0  0  0
   -0.5004    2.3833    1.0177 O   0  0  0  0  0  0  0  0  0  0  0  0
   -2.6552    1.6258    0.3985 C   0  0  0  0  0  0  0  0  0  0  0  0
   -3.2993    2.8340    1.0370 C   0  0  0  0  0  0  0  0  0  0  0  0
   -3.7480    3.8620    0.0085 C   0  0  0  0  0  0  0  0  0  0  0  0
   -3.4638    0.6760   -0.2273 C   0  0  0  0  0  0  0  0  0  0  0  0
   -2.9070   -0.4300   -0.8783 C   0  0  0  0  0  0  0  0  0  0  0  0
   -1.5071   -0.6407   -0.8363 C   0  0  0  0  0  0  0  0  0  0  0  0
   -0.9110   -1.7008   -1.7567 C   0  0  0  0  0  0  0  0  0  0  0  0
   -1.8775   -2.8311   -2.0990 C   0  0  0  0  0  0  0  0  0  0  0  0
   -3.1809   -2.2558   -2.6266 C   0  0  0  0  0  0  0  0  0  0  0  0
   -3.8477   -1.3978   -1.5592 C   0  0  0  0  0  0  0  0  0  0  0  0
    0.2243    4.9818   -0.8867 H   0  0  0  0  0  0  0  0  0  0  0  0
    3.6719    2.3616   -1.4762 H   0  0  0  0  0  0  0  0  0  0  0  0
    4.8776    1.1028   -1.3721 H   0  0  0  0  0  0  0  0  0  0  0  0
    5.5375    3.1185   -0.0674 H   0  0  0  0  0  0  0  0  0  0  0  0
    5.3629    1.7228    1.0071 H   0  0  0  0  0  0  0  0  0  0  0  0
    4.0973    2.9565    0.9522 H   0  0  0  0  0  0  0  0  0  0  0  0
    4.5980   -0.7514    0.3543 H   0  0  0  0  0  0  0  0  0  0  0  0
   -0.5139   -1.5372    1.9893 H   0  0  0  0  0  0  0  0  0  0  0  0
   -0.2405   -2.7505    0.7282 H   0  0  0  0  0  0  0  0  0  0  0  0
    0.1889   -3.7875    2.8387 H   0  0  0  0  0  0  0  0  0  0  0  0
    1.2161   -2.4606    3.3835 H   0  0  0  0  0  0  0  0  0  0  0  0
    2.5496   -4.4466    2.5835 H   0  0  0  0  0  0  0  0  0  0  0  0
    1.8212   -4.2717    0.9871 H   0  0  0  0  0  0  0  0  0  0  0  0
    3.9365   -3.1468    0.8915 H   0  0  0  0  0  0  0  0  0  0  0  0
    3.6725   -2.3399    2.4443 H   0  0  0  0  0  0  0  0  0  0  0  0
   -2.6205    3.3089    1.7540 H   0  0  0  0  0  0  0  0  0  0  0  0
   -4.1641    2.5043    1.6267 H   0  0  0  0  0  0  0  0  0  0  0  0
   -4.4952    3.4451   -0.6750 H   0  0  0  0  0  0  0  0  0  0  0  0
   -2.9064    4.2177   -0.5933 H   0  0  0  0  0  0  0  0  0  0  0  0
   -4.1963    4.7259    0.5096 H   0  0  0  0  0  0  0  0  0  0  0  0
   -4.5438    0.8163   -0.2373 H   0  0  0  0  0  0  0  0  0  0  0  0
   -0.0028   -2.1506   -1.3538 H   0  0  0  0  0  0  0  0  0  0  0  0
   -0.6160   -1.1911   -2.6840 H   0  0  0  0  0  0  0  0  0  0  0  0
   -2.0709   -3.4452   -1.2107 H   0  0  0  0  0  0  0  0  0  0  0  0
   -1.4256   -3.4848   -2.8535 H   0  0  0  0  0  0  0  0  0  0  0  0
   -2.9819   -1.6516   -3.5208 H   0  0  0  0  0  0  0  0  0  0  0  0
   -3.8578   -3.0627   -2.9289 H   0  0  0  0  0  0  0  0  0  0  0  0
   -4.6780   -0.8509   -2.0225 H   0  0  0  0  0  0  0  0  0  0  0  0
   -4.2754   -2.0484   -0.7858 H   0  0  0  0  0  0  0  0  0  0  0  0
  2  1  2  0  0  0  0
  2 19  1  0  0  0  0
  3  2  1  0  0  0  0
  4  5  1  0  0  0  0
  4  2  1  0  0  0  0
  5  6  2  0  0  0  0
  5 16  1  0  0  0  0
  6  9  1  0  0  0  0
  7  6  1  0  0  0  0
  7  8  1  0  0  0  0
  8 35  1  0  0  0  0
  8 34  1  0  0  0  0
  9 36  1  0  0  0  0
  9 10  2  0  0  0  0
 10 15  1  0  0  0  0
 11 10  1  0  0  0  0
 11 12  1  0  0  0  0
 12 37  1  0  0  0  0
 12 13  1  0  0  0  0
 13 39  1  0  0  0  0
 13 40  1  0  0  0  0
 14 13  1  0  0  0  0
 14 41  1  0  0  0  0
 15 14  1  0  0  0  0
 15 44  1  0  0  0  0
 16 11  2  0  0  0  0
 17 16  1  0  0  0  0
 17 18  2  0  0  0  0
 18 19  1  0  0  0  0
 20 18  1  0  0  0  0
 20 21  1  0  0  0  0
 21 46  1  0  0  0  0
 21 45  1  0  0  0  0
 22 49  1  0  0  0  0
 22 21  1  0  0  0  0
 23 20  2  0  0  0  0
 24 25  2  0  0  0  0
 24 23  1  0  0  0  0
 25 17  1  0  0  0  0
 26 51  1  0  0  0  0
 26 25  1  0  0  0  0
 27 26  1  0  0  0  0
 27 53  1  0  0  0  0
 28 27  1  0  0  0  0
 28 29  1  0  0  0  0
 29 24  1  0  0  0  0
 29 58  1  0  0  0  0
 30  3  1  0  0  0  0
 31  7  1  0  0  0  0
 32  7  1  0  0  0  0
 33  8  1  0  0  0  0
 38 12  1  0  0  0  0
 42 14  1  0  0  0  0
 43 15  1  0  0  0  0
 47 22  1  0  0  0  0
 48 22  1  0  0  0  0
 50 23  1  0  0  0  0
 52 26  1  0  0  0  0
 54 27  1  0  0  0  0
 55 28  1  0  0  0  0
 56 28  1  0  0  0  0
 57 29  1  0  0  0  0
M  END
$$$$
