O=P1(O)OC2=C(Br)C=C3C(CCCC3)=C2C4=C(O1)C(Br)=CC5=C4CCCC5
 OpenBabel09032010373D

 46 50  0  0  0  0  0  0  0  0999 V2000
   -0.7031    5.0590   -0.6570 O   0  0  0  0  0  0  0  0  0  0  0  0
    0.2371    3.9915   -0.1922 P   0  0  0  0  0  0  0  0  0  0  0  0
    1.6190    4.6405    0.3147 O   0  0  0  0  0  0  0  0  0  0  0  0
    0.6980    2.9496   -1.3322 O   0  0  0  0  0  0  0  0  0  0  0  0
    1.3843    1.8176   -0.9608 C   0  0  0  0  0  0  0  0  0  0  0  0
    2.6945    1.6712   -1.4255 C   0  0  0  0  0  0  0  0  0  0  0  0
    3.5086    2.9785   -2.5346 Br  0  0  0  0  0  0  0  0  0  0  0  0
    3.4320    0.5475   -1.0800 C   0  0  0  0  0  0  0  0  0  0  0  0
    2.8885   -0.4129   -0.2198 C   0  0  0  0  0  0  0  0  0  0  0  0
    1.5548   -0.2725    0.2440 C   0  0  0  0  0  0  0  0  0  0  0  0
    1.0912   -1.1802    1.3791 C   0  0  0  0  0  0  0  0  0  0  0  0
    1.8079   -2.5266    1.4185 C   0  0  0  0  0  0  0  0  0  0  0  0
    3.3121   -2.3115    1.4193 C   0  0  0  0  0  0  0  0  0  0  0  0
    3.7451   -1.6058    0.1408 C   0  0  0  0  0  0  0  0  0  0  0  0
    0.7399    0.8266   -0.1827 C   0  0  0  0  0  0  0  0  0  0  0  0
   -0.6569    0.9512    0.1393 C   0  0  0  0  0  0  0  0  0  0  0  0
   -1.1305    2.0981    0.8150 C   0  0  0  0  0  0  0  0  0  0  0  0
   -0.2552    3.1245    1.0740 O   0  0  0  0  0  0  0  0  0  0  0  0
   -2.4498    2.2203    1.2550 C   0  0  0  0  0  0  0  0  0  0  0  0
   -3.0398    3.7427    2.2192 Br  0  0  0  0  0  0  0  0  0  0  0  0
   -3.3654    1.2138    0.9799 C   0  0  0  0  0  0  0  0  0  0  0  0
   -2.9807    0.0923    0.2341 C   0  0  0  0  0  0  0  0  0  0  0  0
   -1.6427   -0.0282   -0.2169 C   0  0  0  0  0  0  0  0  0  0  0  0
   -1.2750   -1.1797   -1.1469 C   0  0  0  0  0  0  0  0  0  0  0  0
   -2.4768   -1.8531   -1.8071 C   0  0  0  0  0  0  0  0  0  0  0  0
   -3.5193   -2.1904   -0.7547 C   0  0  0  0  0  0  0  0  0  0  0  0
   -4.0545   -0.9092   -0.1274 C   0  0  0  0  0  0  0  0  0  0  0  0
    1.7339    5.5206   -0.0885 H   0  0  0  0  0  0  0  0  0  0  0  0
    4.4476    0.4284   -1.4517 H   0  0  0  0  0  0  0  0  0  0  0  0
    0.0181   -1.3731    1.3563 H   0  0  0  0  0  0  0  0  0  0  0  0
    1.2861   -0.6444    2.3180 H   0  0  0  0  0  0  0  0  0  0  0  0
    1.5162   -3.1362    0.5542 H   0  0  0  0  0  0  0  0  0  0  0  0
    1.5093   -3.0753    2.3188 H   0  0  0  0  0  0  0  0  0  0  0  0
    3.8332   -3.2714    1.5068 H   0  0  0  0  0  0  0  0  0  0  0  0
    3.5977   -1.7106    2.2920 H   0  0  0  0  0  0  0  0  0  0  0  0
    3.7009   -2.3137   -0.6967 H   0  0  0  0  0  0  0  0  0  0  0  0
    4.7914   -1.2964    0.2525 H   0  0  0  0  0  0  0  0  0  0  0  0
   -4.3967    1.3124    1.3133 H   0  0  0  0  0  0  0  0  0  0  0  0
   -0.7304   -1.9429   -0.5837 H   0  0  0  0  0  0  0  0  0  0  0  0
   -0.6176   -0.8169   -1.9458 H   0  0  0  0  0  0  0  0  0  0  0  0
   -2.1504   -2.7638   -2.3218 H   0  0  0  0  0  0  0  0  0  0  0  0
   -2.9117   -1.1912   -2.5666 H   0  0  0  0  0  0  0  0  0  0  0  0
   -3.0730   -2.8292    0.0180 H   0  0  0  0  0  0  0  0  0  0  0  0
   -4.3445   -2.7558   -1.2016 H   0  0  0  0  0  0  0  0  0  0  0  0
   -4.6333   -1.1693    0.7671 H   0  0  0  0  0  0  0  0  0  0  0  0
   -4.7400   -0.4260   -0.8355 H   0  0  0  0  0  0  0  0  0  0  0  0
  1  2  2  0  0  0  0
  2  3  1  0  0  0  0
  2 18  1  0  0  0  0
  4  5  1  0  0  0  0
  4  2  1  0  0  0  0
  5 15  2  0  0  0  0
  6  8  2  0  0  0  0
  6  5  1  0  0  0  0
  7  6  1  0  0  0  0
  8  9  1  0  0  0  0
  9 14  1  0  0  0  0
  9 10  2  0  0  0  0
 10 11  1  0  0  0  0
 11 12  1  0  0  0  0
 11 31  1  0  0  0  0
 12 13  1  0  0  0  0
 12 33  1  0  0  0  0
 13 34  1  0  0  0  0
 13 35  1  0  0  0  0
 14 37  1  0  0  0  0
 14 13  1  0  0  0  0
 15 16  1  0  0  0  0
 15 10  1  0  0  0  0
 16 17  1  0  0  0  0
 17 18  1  0  0  0  0
 17 19  2  0  0  0  0
 19 20  1  0  0  0  0
 21 19  1  0  0  0  0
 21 38  1  0  0  0  0
 22 21  2  0  0  0  0
 23 16  2  0  0  0  0
 23 22  1  0  0  0  0
 24 39  1  0  0  0  0
 24 23  1  0  0  0  0
 25 24  1  0  0  0  0
 25 26  1  0  0  0  0
 26 27  1  0  0  0  0
 26 43  1  0  0  0  0
 27 22  1  0  0  0  0
 27 45  1  0  0  0  0
 28  3  1  0  0  0  0
 29  8  1  0  0  0  0
 30 11  1  0  0  0  0
 32 12  1  0  0  0  0
 36 14  1  0  0  0  0
 40 24  1  0  0  0  0
 41 25  1  0  0  0  0
 42 25  1  0  0  0  0
 44 26  1  0  0  0  0
 46 27  1  0  0  0  0
M  END
$$$$
