O=P1(O)OC2=C(CC3=CC=C(OC)C=C3)C=C4C(CCCC4)=C2C5=C(O1)C(CC6=CC=C(OC)C=C6)=CC7=C5CCCC7
 OpenBabel09032010373D

 80 86  0  0  0  0  0  0  0  0999 V2000
    1.4999    2.7157   -2.1792 O   0  0  0  0  0  0  0  0  0  0  0  0
    0.5744    1.5398   -2.2076 P   0  0  0  0  0  0  0  0  0  0  0  0
   -0.3744    1.5110   -3.5095 O   0  0  0  0  0  0  0  0  0  0  0  0
    1.3007    0.1013   -2.3046 O   0  0  0  0  0  0  0  0  0  0  0  0
    1.7712   -0.4443   -1.1352 C   0  0  0  0  0  0  0  0  0  0  0  0
    3.1601   -0.5453   -0.9684 C   0  0  0  0  0  0  0  0  0  0  0  0
    4.1328   -0.1208   -2.0512 C   0  0  0  0  0  0  0  0  0  0  0  0
    5.2607    0.7713   -1.5784 C   0  0  0  0  0  0  0  0  0  0  0  0
    5.0078    2.0953   -1.1957 C   0  0  0  0  0  0  0  0  0  0  0  0
    6.0457    2.9240   -0.7541 C   0  0  0  0  0  0  0  0  0  0  0  0
    7.3516    2.4397   -0.6902 C   0  0  0  0  0  0  0  0  0  0  0  0
    8.4520    3.1402   -0.2783 O   0  0  0  0  0  0  0  0  0  0  0  0
    8.2439    4.4965    0.0950 C   0  0  0  0  0  0  0  0  0  0  0  0
    7.6081    1.1212   -1.0722 C   0  0  0  0  0  0  0  0  0  0  0  0
    6.5746    0.2915   -1.5144 C   0  0  0  0  0  0  0  0  0  0  0  0
    3.6332   -1.1053    0.2214 C   0  0  0  0  0  0  0  0  0  0  0  0
    2.7578   -1.4986    1.2429 C   0  0  0  0  0  0  0  0  0  0  0  0
    1.3617   -1.3724    1.0595 C   0  0  0  0  0  0  0  0  0  0  0  0
    0.4280   -1.6735    2.2259 C   0  0  0  0  0  0  0  0  0  0  0  0
    1.1229   -1.6997    3.5861 C   0  0  0  0  0  0  0  0  0  0  0  0
    2.3618   -2.5763    3.5140 C   0  0  0  0  0  0  0  0  0  0  0  0
    3.3683   -1.9713    2.5430 C   0  0  0  0  0  0  0  0  0  0  0  0
    0.8316   -0.9144   -0.1876 C   0  0  0  0  0  0  0  0  0  0  0  0
   -0.5747   -0.8978   -0.4876 C   0  0  0  0  0  0  0  0  0  0  0  0
   -1.2254    0.3182   -0.8099 C   0  0  0  0  0  0  0  0  0  0  0  0
   -0.4790    1.4603   -0.9866 O   0  0  0  0  0  0  0  0  0  0  0  0
   -2.6202    0.4467   -0.9363 C   0  0  0  0  0  0  0  0  0  0  0  0
   -3.2527    1.7994   -1.2188 C   0  0  0  0  0  0  0  0  0  0  0  0
   -4.6748    1.9835   -0.7303 C   0  0  0  0  0  0  0  0  0  0  0  0
   -4.9478    2.1050    0.6396 C   0  0  0  0  0  0  0  0  0  0  0  0
   -6.2623    2.2571    1.0975 C   0  0  0  0  0  0  0  0  0  0  0  0
   -7.3214    2.2908    0.1911 C   0  0  0  0  0  0  0  0  0  0  0  0
   -8.6461    2.4292    0.5026 O   0  0  0  0  0  0  0  0  0  0  0  0
   -8.9746    2.5534    1.8808 C   0  0  0  0  0  0  0  0  0  0  0  0
   -7.0525    2.1743   -1.1744 C   0  0  0  0  0  0  0  0  0  0  0  0
   -5.7422    2.0224   -1.6354 C   0  0  0  0  0  0  0  0  0  0  0  0
   -3.3877   -0.7171   -0.8570 C   0  0  0  0  0  0  0  0  0  0  0  0
   -2.7935   -1.9707   -0.6612 C   0  0  0  0  0  0  0  0  0  0  0  0
   -1.3928   -2.0698   -0.4816 C   0  0  0  0  0  0  0  0  0  0  0  0
   -0.7587   -3.4562   -0.5089 C   0  0  0  0  0  0  0  0  0  0  0  0
   -1.7008   -4.5715   -0.0652 C   0  0  0  0  0  0  0  0  0  0  0  0
   -2.9962   -4.4992   -0.8557 C   0  0  0  0  0  0  0  0  0  0  0  0
   -3.7033   -3.1771   -0.5874 C   0  0  0  0  0  0  0  0  0  0  0  0
   -0.8954    0.6899   -3.5573 H   0  0  0  0  0  0  0  0  0  0  0  0
    4.5398   -1.0316   -2.5100 H   0  0  0  0  0  0  0  0  0  0  0  0
    3.6213    0.4086   -2.8640 H   0  0  0  0  0  0  0  0  0  0  0  0
    3.9957    2.4951   -1.2406 H   0  0  0  0  0  0  0  0  0  0  0  0
    5.7940    3.9401   -0.4700 H   0  0  0  0  0  0  0  0  0  0  0  0
    9.2122    4.9155    0.3849 H   0  0  0  0  0  0  0  0  0  0  0  0
    7.8656    5.0850   -0.7475 H   0  0  0  0  0  0  0  0  0  0  0  0
    7.5772    4.5696    0.9606 H   0  0  0  0  0  0  0  0  0  0  0  0
    8.6241    0.7373   -1.0263 H   0  0  0  0  0  0  0  0  0  0  0  0
    6.8051   -0.7302   -1.8061 H   0  0  0  0  0  0  0  0  0  0  0  0
    4.7068   -1.2027    0.3801 H   0  0  0  0  0  0  0  0  0  0  0  0
   -0.3646   -0.9173    2.2723 H   0  0  0  0  0  0  0  0  0  0  0  0
   -0.0457   -2.6473    2.0714 H   0  0  0  0  0  0  0  0  0  0  0  0
    0.4313   -2.0835    4.3445 H   0  0  0  0  0  0  0  0  0  0  0  0
    1.4013   -0.6822    3.8883 H   0  0  0  0  0  0  0  0  0  0  0  0
    2.0830   -3.5856    3.1857 H   0  0  0  0  0  0  0  0  0  0  0  0
    2.8180   -2.6754    4.5052 H   0  0  0  0  0  0  0  0  0  0  0  0
    4.1492   -2.7132    2.3367 H   0  0  0  0  0  0  0  0  0  0  0  0
    3.8501   -1.1087    3.0213 H   0  0  0  0  0  0  0  0  0  0  0  0
   -2.6572    2.5972   -0.7564 H   0  0  0  0  0  0  0  0  0  0  0  0
   -3.2069    1.9712   -2.3020 H   0  0  0  0  0  0  0  0  0  0  0  0
   -4.1343    2.0765    1.3622 H   0  0  0  0  0  0  0  0  0  0  0  0
   -6.4210    2.3451    2.1669 H   0  0  0  0  0  0  0  0  0  0  0  0
   -8.6839    1.6566    2.4379 H   0  0  0  0  0  0  0  0  0  0  0  0
  -10.0614    2.6555    1.9577 H   0  0  0  0  0  0  0  0  0  0  0  0
   -8.5238    3.4522    2.3144 H   0  0  0  0  0  0  0  0  0  0  0  0
   -7.8731    2.2024   -1.8872 H   0  0  0  0  0  0  0  0  0  0  0  0
   -5.5658    1.9327   -2.7047 H   0  0  0  0  0  0  0  0  0  0  0  0
   -4.4705   -0.6646   -0.9678 H   0  0  0  0  0  0  0  0  0  0  0  0
    0.1432   -3.5211    0.1006 H   0  0  0  0  0  0  0  0  0  0  0  0
   -0.4447   -3.6455   -1.5444 H   0  0  0  0  0  0  0  0  0  0  0  0
   -1.9107   -4.4845    1.0081 H   0  0  0  0  0  0  0  0  0  0  0  0
   -1.2202   -5.5434   -0.2244 H   0  0  0  0  0  0  0  0  0  0  0  0
   -2.7800   -4.5961   -1.9272 H   0  0  0  0  0  0  0  0  0  0  0  0
   -3.6541   -5.3324   -0.5847 H   0  0  0  0  0  0  0  0  0  0  0  0
   -4.5254   -3.0713   -1.3058 H   0  0  0  0  0  0  0  0  0  0  0  0
   -4.1464   -3.2002    0.4164 H   0  0  0  0  0  0  0  0  0  0  0  0
  2  1  2  0  0  0  0
  2 26  1  0  0  0  0
  3  2  1  0  0  0  0
  4  2  1  0  0  0  0
  4  5  1  0  0  0  0
  5  6  2  0  0  0  0
  5 23  1  0  0  0  0
  6 16  1  0  0  0  0
  7  8  1  0  0  0  0
  7  6  1  0  0  0  0
  8 15  2  0  0  0  0
  8  9  1  0  0  0  0
  9 10  2  0  0  0  0
 10 11  1  0  0  0  0
 10 48  1  0  0  0  0
 11 12  1  0  0  0  0
 12 13  1  0  0  0  0
 13 49  1  0  0  0  0
 13 51  1  0  0  0  0
 14 52  1  0  0  0  0
 14 11  2  0  0  0  0
 15 14  1  0  0  0  0
 16 54  1  0  0  0  0
 16 17  2  0  0  0  0
 17 22  1  0  0  0  0
 18 17  1  0  0  0  0
 18 19  1  0  0  0  0
 19 55  1  0  0  0  0
 19 20  1  0  0  0  0
 20 58  1  0  0  0  0
 20 57  1  0  0  0  0
 21 20  1  0  0  0  0
 21 60  1  0  0  0  0
 22 62  1  0  0  0  0
 22 21  1  0  0  0  0
 23 18  2  0  0  0  0
 24 39  1  0  0  0  0
 24 23  1  0  0  0  0
 25 24  2  0  0  0  0
 26 25  1  0  0  0  0
 27 37  2  0  0  0  0
 27 25  1  0  0  0  0
 28 27  1  0  0  0  0
 28 63  1  0  0  0  0
 28 29  1  0  0  0  0
 29 30  2  0  0  0  0
 30 31  1  0  0  0  0
 30 65  1  0  0  0  0
 31 66  1  0  0  0  0
 32 33  1  0  0  0  0
 32 31  2  0  0  0  0
 33 34  1  0  0  0  0
 34 68  1  0  0  0  0
 34 69  1  0  0  0  0
 34 67  1  0  0  0  0
 35 32  1  0  0  0  0
 36 35  2  0  0  0  0
 36 29  1  0  0  0  0
 37 38  1  0  0  0  0
 38 43  1  0  0  0  0
 38 39  2  0  0  0  0
 40 39  1  0  0  0  0
 40 41  1  0  0  0  0
 40 73  1  0  0  0  0
 41 75  1  0  0  0  0
 42 43  1  0  0  0  0
 42 78  1  0  0  0  0
 42 41  1  0  0  0  0
 43 80  1  0  0  0  0
 44  3  1  0  0  0  0
 45  7  1  0  0  0  0
 46  7  1  0  0  0  0
 47  9  1  0  0  0  0
 50 13  1  0  0  0  0
 53 15  1  0  0  0  0
 56 19  1  0  0  0  0
 59 21  1  0  0  0  0
 61 22  1  0  0  0  0
 64 28  1  0  0  0  0
 70 35  1  0  0  0  0
 71 36  1  0  0  0  0
 72 37  1  0  0  0  0
 74 40  1  0  0  0  0
 76 41  1  0  0  0  0
 77 42  1  0  0  0  0
 79 43  1  0  0  0  0
M  END
$$$$
