O=P1(O)OC2=C(CC)C=C3C(CCCC3)=C2C4=C(O1)C(CC)=CC5=C4CCCC5
 OpenBabel09032010373D

 58 62  0  0  0  0  0  0  0  0999 V2000
    0.0682    4.3375   -1.3066 O   0  0  0  0  0  0  0  0  0  0  0  0
    0.5742    3.2984   -0.3533 P   0  0  0  0  0  0  0  0  0  0  0  0
    1.5690    3.9803    0.7137 O   0  0  0  0  0  0  0  0  0  0  0  0
    1.4508    2.1213   -1.0166 O   0  0  0  0  0  0  0  0  0  0  0  0
    1.7535    1.0105   -0.2637 C   0  0  0  0  0  0  0  0  0  0  0  0
    3.1146    0.7784   -0.0096 C   0  0  0  0  0  0  0  0  0  0  0  0
    4.1953    1.6789   -0.5579 C   0  0  0  0  0  0  0  0  0  0  0  0
    4.5683    1.3124   -1.9866 C   0  0  0  0  0  0  0  0  0  0  0  0
    3.4677   -0.3339    0.7523 C   0  0  0  0  0  0  0  0  0  0  0  0
    2.4893   -1.1700    1.3020 C   0  0  0  0  0  0  0  0  0  0  0  0
    1.1197   -0.9383    1.0185 C   0  0  0  0  0  0  0  0  0  0  0  0
    0.0749   -1.7313    1.7982 C   0  0  0  0  0  0  0  0  0  0  0  0
    0.5796   -3.0692    2.3325 C   0  0  0  0  0  0  0  0  0  0  0  0
    1.8828   -2.8727    3.0866 C   0  0  0  0  0  0  0  0  0  0  0  0
    2.9528   -2.3356    2.1458 C   0  0  0  0  0  0  0  0  0  0  0  0
    0.7197    0.1395    0.1619 C   0  0  0  0  0  0  0  0  0  0  0  0
   -0.6444    0.3598   -0.2515 C   0  0  0  0  0  0  0  0  0  0  0  0
   -1.2780    1.5960    0.0156 C   0  0  0  0  0  0  0  0  0  0  0  0
   -0.5458    2.6127    0.5804 O   0  0  0  0  0  0  0  0  0  0  0  0
   -2.6354    1.8457   -0.2335 C   0  0  0  0  0  0  0  0  0  0  0  0
   -3.2909    3.1523    0.1418 C   0  0  0  0  0  0  0  0  0  0  0  0
   -3.7102    3.1772    1.6040 C   0  0  0  0  0  0  0  0  0  0  0  0
   -3.3937    0.8384   -0.8271 C   0  0  0  0  0  0  0  0  0  0  0  0
   -2.8049   -0.3695   -1.2210 C   0  0  0  0  0  0  0  0  0  0  0  0
   -1.4362   -0.6138   -0.9439 C   0  0  0  0  0  0  0  0  0  0  0  0
   -0.7766   -1.8399   -1.5670 C   0  0  0  0  0  0  0  0  0  0  0  0
   -1.7507   -2.9657   -1.9043 C   0  0  0  0  0  0  0  0  0  0  0  0
   -2.9171   -2.4233   -2.7115 C   0  0  0  0  0  0  0  0  0  0  0  0
   -3.6877   -1.3983   -1.8903 C   0  0  0  0  0  0  0  0  0  0  0  0
    1.3981    4.9389    0.7453 H   0  0  0  0  0  0  0  0  0  0  0  0
    5.0873    1.6158    0.0778 H   0  0  0  0  0  0  0  0  0  0  0  0
    3.8751    2.7261   -0.5103 H   0  0  0  0  0  0  0  0  0  0  0  0
    3.7112    1.4080   -2.6614 H   0  0  0  0  0  0  0  0  0  0  0  0
    5.3611    1.9731   -2.3515 H   0  0  0  0  0  0  0  0  0  0  0  0
    4.9308    0.2807   -2.0490 H   0  0  0  0  0  0  0  0  0  0  0  0
    4.5193   -0.5379    0.9483 H   0  0  0  0  0  0  0  0  0  0  0  0
   -0.2420   -1.1056    2.6431 H   0  0  0  0  0  0  0  0  0  0  0  0
   -0.8189   -1.9380    1.2080 H   0  0  0  0  0  0  0  0  0  0  0  0
   -0.1747   -3.5076    2.9957 H   0  0  0  0  0  0  0  0  0  0  0  0
    0.7297   -3.7724    1.5036 H   0  0  0  0  0  0  0  0  0  0  0  0
    2.2159   -3.8208    3.5230 H   0  0  0  0  0  0  0  0  0  0  0  0
    1.7277   -2.1725    3.9171 H   0  0  0  0  0  0  0  0  0  0  0  0
    3.8245   -2.0426    2.7436 H   0  0  0  0  0  0  0  0  0  0  0  0
    3.2752   -3.1348    1.4663 H   0  0  0  0  0  0  0  0  0  0  0  0
   -2.6132    3.9877   -0.0688 H   0  0  0  0  0  0  0  0  0  0  0  0
   -4.1710    3.3207   -0.4912 H   0  0  0  0  0  0  0  0  0  0  0  0
   -4.4192    2.3725    1.8263 H   0  0  0  0  0  0  0  0  0  0  0  0
   -2.8490    3.0587    2.2699 H   0  0  0  0  0  0  0  0  0  0  0  0
   -4.1931    4.1302    1.8424 H   0  0  0  0  0  0  0  0  0  0  0  0
   -4.4530    1.0052   -1.0171 H   0  0  0  0  0  0  0  0  0  0  0  0
   -0.0007   -2.2655   -0.9289 H   0  0  0  0  0  0  0  0  0  0  0  0
   -0.2810   -1.5077   -2.4888 H   0  0  0  0  0  0  0  0  0  0  0  0
   -1.2298   -3.7432   -2.4744 H   0  0  0  0  0  0  0  0  0  0  0  0
   -2.1194   -3.4325   -0.9823 H   0  0  0  0  0  0  0  0  0  0  0  0
   -3.5863   -3.2389   -3.0073 H   0  0  0  0  0  0  0  0  0  0  0  0
   -2.5449   -1.9611   -3.6346 H   0  0  0  0  0  0  0  0  0  0  0  0
   -4.4113   -0.9007   -2.5475 H   0  0  0  0  0  0  0  0  0  0  0  0
   -4.2572   -1.9132   -1.1062 H   0  0  0  0  0  0  0  0  0  0  0  0
  1  2  2  0  0  0  0
  2 19  1  0  0  0  0
  2  3  1  0  0  0  0
  3 30  1  0  0  0  0
  4  2  1  0  0  0  0
  4  5  1  0  0  0  0
  5  6  2  0  0  0  0
  5 16  1  0  0  0  0
  6  9  1  0  0  0  0
  7 32  1  0  0  0  0
  7  6  1  0  0  0  0
  7 31  1  0  0  0  0
  8  7  1  0  0  0  0
  9 36  1  0  0  0  0
  9 10  2  0  0  0  0
 10 15  1  0  0  0  0
 11 10  1  0  0  0  0
 11 12  1  0  0  0  0
 12 13  1  0  0  0  0
 12 37  1  0  0  0  0
 13 39  1  0  0  0  0
 13 14  1  0  0  0  0
 14 41  1  0  0  0  0
 14 42  1  0  0  0  0
 15 43  1  0  0  0  0
 15 14  1  0  0  0  0
 16 11  2  0  0  0  0
 17 18  2  0  0  0  0
 17 16  1  0  0  0  0
 18 19  1  0  0  0  0
 20 18  1  0  0  0  0
 20 21  1  0  0  0  0
 21 22  1  0  0  0  0
 22 47  1  0  0  0  0
 22 49  1  0  0  0  0
 22 48  1  0  0  0  0
 23 20  2  0  0  0  0
 24 25  2  0  0  0  0
 24 23  1  0  0  0  0
 25 17  1  0  0  0  0
 26 25  1  0  0  0  0
 26 51  1  0  0  0  0
 27 26  1  0  0  0  0
 27 54  1  0  0  0  0
 28 27  1  0  0  0  0
 28 29  1  0  0  0  0
 29 24  1  0  0  0  0
 29 58  1  0  0  0  0
 33  8  1  0  0  0  0
 34  8  1  0  0  0  0
 35  8  1  0  0  0  0
 38 12  1  0  0  0  0
 40 13  1  0  0  0  0
 44 15  1  0  0  0  0
 45 21  1  0  0  0  0
 46 21  1  0  0  0  0
 50 23  1  0  0  0  0
 52 26  1  0  0  0  0
 53 27  1  0  0  0  0
 55 28  1  0  0  0  0
 56 28  1  0  0  0  0
 57 29  1  0  0  0  0
M  END
$$$$
