O=P1(O)OC2=C(C3=CC=C(C4=CC=C(C=CC=C5)C5=C4)C=C3)C=C6C(C=CC=C6)=C2C7=C(O1)C(C8=CC=C(C9=CC(C=CC=C%10)=C%10C=C9)C=C8)=CC%11=C7C=CC=C%11
 OpenBabel09032010373D

 90100  0  0  0  0  0  0  0  0999 V2000
    0.3227   -1.2604   -0.9470 O   0  0  0  0  0  0  0  0  0  0  0  0
   -0.1786    0.0277   -0.3723 P   0  0  0  0  0  0  0  0  0  0  0  0
   -0.9442   -0.2118    1.0224 O   0  0  0  0  0  0  0  0  0  0  0  0
   -1.2744    0.7856   -1.2754 O   0  0  0  0  0  0  0  0  0  0  0  0
   -1.6508    2.0662   -0.9346 C   0  0  0  0  0  0  0  0  0  0  0  0
   -2.9751    2.2358   -0.4897 C   0  0  0  0  0  0  0  0  0  0  0  0
   -3.9044    1.1043   -0.3243 C   0  0  0  0  0  0  0  0  0  0  0  0
   -4.4340    0.7906    0.9360 C   0  0  0  0  0  0  0  0  0  0  0  0
   -5.3101   -0.2883    1.1029 C   0  0  0  0  0  0  0  0  0  0  0  0
   -5.6857   -1.0915    0.0159 C   0  0  0  0  0  0  0  0  0  0  0  0
   -6.6078   -2.2270    0.1895 C   0  0  0  0  0  0  0  0  0  0  0  0
   -7.7342   -2.3734   -0.6327 C   0  0  0  0  0  0  0  0  0  0  0  0
   -8.6101   -3.4512   -0.4728 C   0  0  0  0  0  0  0  0  0  0  0  0
   -8.3850   -4.4162    0.5178 C   0  0  0  0  0  0  0  0  0  0  0  0
   -9.2554   -5.5046    0.6908 C   0  0  0  0  0  0  0  0  0  0  0  0
   -9.0167   -6.4571    1.6822 C   0  0  0  0  0  0  0  0  0  0  0  0
   -7.9068   -6.3329    2.5121 C   0  0  0  0  0  0  0  0  0  0  0  0
   -7.0329   -5.2561    2.3524 C   0  0  0  0  0  0  0  0  0  0  0  0
   -7.2583   -4.2888    1.3590 C   0  0  0  0  0  0  0  0  0  0  0  0
   -6.3874   -3.1979    1.1826 C   0  0  0  0  0  0  0  0  0  0  0  0
   -5.1547   -0.7753   -1.2438 C   0  0  0  0  0  0  0  0  0  0  0  0
   -4.2807    0.3051   -1.4118 C   0  0  0  0  0  0  0  0  0  0  0  0
   -3.3946    3.5316   -0.1835 C   0  0  0  0  0  0  0  0  0  0  0  0
   -2.5257    4.6231   -0.2732 C   0  0  0  0  0  0  0  0  0  0  0  0
   -1.1857    4.4366   -0.7073 C   0  0  0  0  0  0  0  0  0  0  0  0
   -0.3504    5.5826   -0.6622 C   0  0  0  0  0  0  0  0  0  0  0  0
   -0.8205    6.8439   -0.2861 C   0  0  0  0  0  0  0  0  0  0  0  0
   -2.1462    7.0035    0.0813 C   0  0  0  0  0  0  0  0  0  0  0  0
   -2.9904    5.8974    0.0950 C   0  0  0  0  0  0  0  0  0  0  0  0
   -0.7277    3.1283   -1.1079 C   0  0  0  0  0  0  0  0  0  0  0  0
    0.5911    2.8691   -1.6520 C   0  0  0  0  0  0  0  0  0  0  0  0
    1.4269    1.8926   -1.0524 C   0  0  0  0  0  0  0  0  0  0  0  0
    0.9339    1.1359   -0.0112 O   0  0  0  0  0  0  0  0  0  0  0  0
    2.7698    1.6882   -1.4115 C   0  0  0  0  0  0  0  0  0  0  0  0
    3.6341    0.7264   -0.7167 C   0  0  0  0  0  0  0  0  0  0  0  0
    4.4917    1.1471    0.3084 C   0  0  0  0  0  0  0  0  0  0  0  0
    5.3217    0.2342    0.9690 C   0  0  0  0  0  0  0  0  0  0  0  0
    5.3188   -1.1263    0.6258 C   0  0  0  0  0  0  0  0  0  0  0  0
    6.1804   -2.0893    1.3306 C   0  0  0  0  0  0  0  0  0  0  0  0
    7.5679   -1.8856    1.4307 C   0  0  0  0  0  0  0  0  0  0  0  0
    8.4031   -2.7962    2.1043 C   0  0  0  0  0  0  0  0  0  0  0  0
    9.7901   -2.5903    2.2001 C   0  0  0  0  0  0  0  0  0  0  0  0
   10.6031   -3.5034    2.8732 C   0  0  0  0  0  0  0  0  0  0  0  0
   10.0416   -4.6341    3.4586 C   0  0  0  0  0  0  0  0  0  0  0  0
    8.6661   -4.8543    3.3718 C   0  0  0  0  0  0  0  0  0  0  0  0
    7.8350   -3.9449    2.6978 C   0  0  0  0  0  0  0  0  0  0  0  0
    6.4520   -4.1520    2.6006 C   0  0  0  0  0  0  0  0  0  0  0  0
    5.6387   -3.2372    1.9257 C   0  0  0  0  0  0  0  0  0  0  0  0
    4.4605   -1.5412   -0.4038 C   0  0  0  0  0  0  0  0  0  0  0  0
    3.6325   -0.6288   -1.0672 C   0  0  0  0  0  0  0  0  0  0  0  0
    3.2902    2.4464   -2.4612 C   0  0  0  0  0  0  0  0  0  0  0  0
    2.4992    3.3619   -3.1609 C   0  0  0  0  0  0  0  0  0  0  0  0
    1.1459    3.5712   -2.7827 C   0  0  0  0  0  0  0  0  0  0  0  0
    0.3942    4.4501   -3.6035 C   0  0  0  0  0  0  0  0  0  0  0  0
    0.9552    5.1298   -4.6879 C   0  0  0  0  0  0  0  0  0  0  0  0
    2.2907    4.9407   -5.0040 C   0  0  0  0  0  0  0  0  0  0  0  0
    3.0554    4.0569   -4.2482 C   0  0  0  0  0  0  0  0  0  0  0  0
   -1.4845   -1.0211    0.9708 H   0  0  0  0  0  0  0  0  0  0  0  0
   -4.1585    1.3837    1.8065 H   0  0  0  0  0  0  0  0  0  0  0  0
   -5.7095   -0.4889    2.0955 H   0  0  0  0  0  0  0  0  0  0  0  0
   -7.9488   -1.6368   -1.4046 H   0  0  0  0  0  0  0  0  0  0  0  0
   -9.4731   -3.5274   -1.1299 H   0  0  0  0  0  0  0  0  0  0  0  0
  -10.1281   -5.6179    0.0516 H   0  0  0  0  0  0  0  0  0  0  0  0
   -9.6979   -7.2947    1.8054 H   0  0  0  0  0  0  0  0  0  0  0  0
   -7.7194   -7.0734    3.2851 H   0  0  0  0  0  0  0  0  0  0  0  0
   -6.1739   -5.1785    3.0146 H   0  0  0  0  0  0  0  0  0  0  0  0
   -5.5128   -3.1113    1.8251 H   0  0  0  0  0  0  0  0  0  0  0  0
   -5.4099   -1.3783   -2.1134 H   0  0  0  0  0  0  0  0  0  0  0  0
   -3.8905    0.5162   -2.4059 H   0  0  0  0  0  0  0  0  0  0  0  0
   -4.4201    3.6864    0.1514 H   0  0  0  0  0  0  0  0  0  0  0  0
    0.7063    5.5066   -0.9125 H   0  0  0  0  0  0  0  0  0  0  0  0
   -0.1426    7.6934   -0.2769 H   0  0  0  0  0  0  0  0  0  0  0  0
   -2.5199    7.9804    0.3756 H   0  0  0  0  0  0  0  0  0  0  0  0
   -4.0219    6.0379    0.4135 H   0  0  0  0  0  0  0  0  0  0  0  0
    4.5105    2.1928    0.6089 H   0  0  0  0  0  0  0  0  0  0  0  0
    5.9615    0.5937    1.7724 H   0  0  0  0  0  0  0  0  0  0  0  0
    8.0079   -1.0055    0.9645 H   0  0  0  0  0  0  0  0  0  0  0  0
   10.2476   -1.7128    1.7487 H   0  0  0  0  0  0  0  0  0  0  0  0
   11.6739   -3.3304    2.9393 H   0  0  0  0  0  0  0  0  0  0  0  0
   10.6731   -5.3461    3.9831 H   0  0  0  0  0  0  0  0  0  0  0  0
    8.2458   -5.7440    3.8353 H   0  0  0  0  0  0  0  0  0  0  0  0
    5.9920   -5.0278    3.0525 H   0  0  0  0  0  0  0  0  0  0  0  0
    4.5673   -3.4233    1.8787 H   0  0  0  0  0  0  0  0  0  0  0  0
    4.4296   -2.5862   -0.7052 H   0  0  0  0  0  0  0  0  0  0  0  0
    2.9764   -0.9910   -1.8570 H   0  0  0  0  0  0  0  0  0  0  0  0
    4.3295    2.2941   -2.7518 H   0  0  0  0  0  0  0  0  0  0  0  0
   -0.6655    4.6122   -3.4137 H   0  0  0  0  0  0  0  0  0  0  0  0
    0.3408    5.7999   -5.2834 H   0  0  0  0  0  0  0  0  0  0  0  0
    2.7343    5.4645   -5.8461 H   0  0  0  0  0  0  0  0  0  0  0  0
    4.0964    3.9030   -4.5270 H   0  0  0  0  0  0  0  0  0  0  0  0
  1  2  2  0  0  0  0
  2 33  1  0  0  0  0
  2  3  1  0  0  0  0
  4  5  1  0  0  0  0
  4  2  1  0  0  0  0
  5  6  1  0  0  0  0
  6  7  1  0  0  0  0
  6 23  2  0  0  0  0
  7  8  2  0  0  0  0
  8  9  1  0  0  0  0
  8 59  1  0  0  0  0
  9 60  1  0  0  0  0
 10 11  1  0  0  0  0
 10  9  2  0  0  0  0
 11 20  2  0  0  0  0
 12 13  2  0  0  0  0
 12 11  1  0  0  0  0
 13 14  1  0  0  0  0
 14 15  2  0  0  0  0
 14 19  1  0  0  0  0
 15 16  1  0  0  0  0
 16 64  1  0  0  0  0
 16 17  2  0  0  0  0
 17 65  1  0  0  0  0
 18 17  1  0  0  0  0
 18 66  1  0  0  0  0
 19 18  2  0  0  0  0
 20 19  1  0  0  0  0
 20 67  1  0  0  0  0
 21 10  1  0  0  0  0
 22 21  2  0  0  0  0
 22  7  1  0  0  0  0
 23 70  1  0  0  0  0
 24 23  1  0  0  0  0
 24 29  2  0  0  0  0
 25 26  2  0  0  0  0
 25 24  1  0  0  0  0
 26 27  1  0  0  0  0
 27 72  1  0  0  0  0
 27 28  2  0  0  0  0
 28 29  1  0  0  0  0
 28 73  1  0  0  0  0
 29 74  1  0  0  0  0
 30  5  2  0  0  0  0
 30 25  1  0  0  0  0
 31 30  1  0  0  0  0
 31 32  2  0  0  0  0
 32 33  1  0  0  0  0
 34 32  1  0  0  0  0
 34 35  1  0  0  0  0
 35 36  1  0  0  0  0
 36 75  1  0  0  0  0
 36 37  2  0  0  0  0
 37 76  1  0  0  0  0
 38 37  1  0  0  0  0
 38 39  1  0  0  0  0
 39 40  2  0  0  0  0
 39 48  1  0  0  0  0
 40 41  1  0  0  0  0
 41 42  2  0  0  0  0
 41 46  1  0  0  0  0
 42 43  1  0  0  0  0
 43 79  1  0  0  0  0
 43 44  2  0  0  0  0
 44 80  1  0  0  0  0
 45 44  1  0  0  0  0
 45 81  1  0  0  0  0
 46 45  2  0  0  0  0
 47 46  1  0  0  0  0
 47 82  1  0  0  0  0
 48 47  2  0  0  0  0
 49 38  2  0  0  0  0
 50 35  2  0  0  0  0
 50 49  1  0  0  0  0
 51 34  2  0  0  0  0
 52 53  1  0  0  0  0
 52 51  1  0  0  0  0
 53 31  1  0  0  0  0
 54 87  1  0  0  0  0
 54 53  2  0  0  0  0
 55 54  1  0  0  0  0
 56 55  2  0  0  0  0
 56 57  1  0  0  0  0
 57 52  2  0  0  0  0
 58  3  1  0  0  0  0
 61 12  1  0  0  0  0
 62 13  1  0  0  0  0
 63 15  1  0  0  0  0
 68 21  1  0  0  0  0
 69 22  1  0  0  0  0
 71 26  1  0  0  0  0
 77 40  1  0  0  0  0
 78 42  1  0  0  0  0
 83 48  1  0  0  0  0
 84 49  1  0  0  0  0
 85 50  1  0  0  0  0
 86 51  1  0  0  0  0
 88 55  1  0  0  0  0
 89 56  1  0  0  0  0
 90 57  1  0  0  0  0
M  END
$$$$
