O=P1(O)OC2=C(C3=CC(C4=CC=C(OC)C=C4)=CC(C5=CC=C(OC)C=C5)=C3)C=C6C(C=CC=C6)=C2C7=C(O1)C(C8=CC(C9=CC=C(OC)C=C9)=CC(C%10=CC=C(OC)C=C%10)=C8)=CC%11=C7C=CC=C%11
 OpenBabel09032010383D

114124  0  0  0  0  0  0  0  0999 V2000
    0.0981    1.3896   -0.5459 O   0  0  0  0  0  0  0  0  0  0  0  0
    0.2763    0.0849    0.1690 P   0  0  0  0  0  0  0  0  0  0  0  0
    0.2092    0.3038    1.7608 O   0  0  0  0  0  0  0  0  0  0  0  0
   -0.8633   -1.0216   -0.0995 O   0  0  0  0  0  0  0  0  0  0  0  0
   -0.8315   -1.6632   -1.3157 C   0  0  0  0  0  0  0  0  0  0  0  0
   -1.8899   -1.4063   -2.2051 C   0  0  0  0  0  0  0  0  0  0  0  0
   -3.0214   -0.5334   -1.8607 C   0  0  0  0  0  0  0  0  0  0  0  0
   -4.2508   -1.0880   -1.4702 C   0  0  0  0  0  0  0  0  0  0  0  0
   -5.3544   -0.2821   -1.1512 C   0  0  0  0  0  0  0  0  0  0  0  0
   -6.6429   -0.8781   -0.7581 C   0  0  0  0  0  0  0  0  0  0  0  0
   -7.2798   -0.5097    0.4357 C   0  0  0  0  0  0  0  0  0  0  0  0
   -8.5094   -1.0711    0.7972 C   0  0  0  0  0  0  0  0  0  0  0  0
   -9.1334   -2.0128   -0.0223 C   0  0  0  0  0  0  0  0  0  0  0  0
  -10.3304   -2.4789    0.4469 O   0  0  0  0  0  0  0  0  0  0  0  0
  -10.9949   -3.4560   -0.3441 C   0  0  0  0  0  0  0  0  0  0  0  0
   -8.5138   -2.3901   -1.2117 C   0  0  0  0  0  0  0  0  0  0  0  0
   -7.2811   -1.8281   -1.5728 C   0  0  0  0  0  0  0  0  0  0  0  0
   -5.1951    1.1129   -1.2235 C   0  0  0  0  0  0  0  0  0  0  0  0
   -3.9825    1.7098   -1.6148 C   0  0  0  0  0  0  0  0  0  0  0  0
   -3.8444    3.1777   -1.6873 C   0  0  0  0  0  0  0  0  0  0  0  0
   -4.8193    3.9723   -2.3134 C   0  0  0  0  0  0  0  0  0  0  0  0
   -4.6971    5.3675   -2.3777 C   0  0  0  0  0  0  0  0  0  0  0  0
   -3.5908    6.0007   -1.8164 C   0  0  0  0  0  0  0  0  0  0  0  0
   -3.3493    7.3463   -1.8075 O   0  0  0  0  0  0  0  0  0  0  0  0
   -4.3228    8.1781   -2.4265 C   0  0  0  0  0  0  0  0  0  0  0  0
   -2.6113    5.2258   -1.1960 C   0  0  0  0  0  0  0  0  0  0  0  0
   -2.7349    3.8334   -1.1320 C   0  0  0  0  0  0  0  0  0  0  0  0
   -2.9085    0.8627   -1.9358 C   0  0  0  0  0  0  0  0  0  0  0  0
   -1.8650   -2.0338   -3.4519 C   0  0  0  0  0  0  0  0  0  0  0  0
   -0.8097   -2.8691   -3.8260 C   0  0  0  0  0  0  0  0  0  0  0  0
    0.2423   -3.1401   -2.9115 C   0  0  0  0  0  0  0  0  0  0  0  0
    1.3138   -3.9277   -3.4066 C   0  0  0  0  0  0  0  0  0  0  0  0
    1.3196   -4.4674   -4.6957 C   0  0  0  0  0  0  0  0  0  0  0  0
    0.2558   -4.2232   -5.5485 C   0  0  0  0  0  0  0  0  0  0  0  0
   -0.7990   -3.4240   -5.1172 C   0  0  0  0  0  0  0  0  0  0  0  0
    0.2104   -2.5860   -1.5797 C   0  0  0  0  0  0  0  0  0  0  0  0
    1.1503   -2.9553   -0.5375 C   0  0  0  0  0  0  0  0  0  0  0  0
    1.8909   -1.9703    0.1635 C   0  0  0  0  0  0  0  0  0  0  0  0
    1.6929   -0.6296   -0.0970 O   0  0  0  0  0  0  0  0  0  0  0  0
    2.9517   -2.2809    1.0452 C   0  0  0  0  0  0  0  0  0  0  0  0
    3.7378   -1.2249    1.6973 C   0  0  0  0  0  0  0  0  0  0  0  0
    3.1235   -0.3973    2.6396 C   0  0  0  0  0  0  0  0  0  0  0  0
    3.7464    0.7548    3.1338 C   0  0  0  0  0  0  0  0  0  0  0  0
    2.9379    1.7149    3.8923 C   0  0  0  0  0  0  0  0  0  0  0  0
    2.7089    3.0008    3.3769 C   0  0  0  0  0  0  0  0  0  0  0  0
    1.7651    3.8527    3.9581 C   0  0  0  0  0  0  0  0  0  0  0  0
    1.0381    3.4311    5.0689 C   0  0  0  0  0  0  0  0  0  0  0  0
    0.0316    4.1226    5.6778 O   0  0  0  0  0  0  0  0  0  0  0  0
   -0.3271    5.3738    5.1057 C   0  0  0  0  0  0  0  0  0  0  0  0
    1.3052    2.1817    5.6293 C   0  0  0  0  0  0  0  0  0  0  0  0
    2.2449    1.3292    5.0474 C   0  0  0  0  0  0  0  0  0  0  0  0
    5.0729    1.0024    2.7606 C   0  0  0  0  0  0  0  0  0  0  0  0
    5.7585    0.1441    1.8800 C   0  0  0  0  0  0  0  0  0  0  0  0
    7.1502    0.4220    1.4925 C   0  0  0  0  0  0  0  0  0  0  0  0
    8.1522    0.5722    2.4618 C   0  0  0  0  0  0  0  0  0  0  0  0
    9.4734    0.8397    2.0912 C   0  0  0  0  0  0  0  0  0  0  0  0
    9.8247    0.9655    0.7469 C   0  0  0  0  0  0  0  0  0  0  0  0
   11.1463    1.2308    0.5228 O   0  0  0  0  0  0  0  0  0  0  0  0
   11.5504    1.3875   -0.8314 C   0  0  0  0  0  0  0  0  0  0  0  0
    8.8412    0.8172   -0.2285 C   0  0  0  0  0  0  0  0  0  0  0  0
    7.5173    0.5483    0.1431 C   0  0  0  0  0  0  0  0  0  0  0  0
    5.0665   -0.9580    1.3444 C   0  0  0  0  0  0  0  0  0  0  0  0
    3.2366   -3.6213    1.2989 C   0  0  0  0  0  0  0  0  0  0  0  0
    2.4733   -4.6409    0.7283 C   0  0  0  0  0  0  0  0  0  0  0  0
    1.4172   -4.3265   -0.1698 C   0  0  0  0  0  0  0  0  0  0  0  0
    0.6410   -5.4246   -0.6242 C   0  0  0  0  0  0  0  0  0  0  0  0
    0.9245   -6.7476   -0.2735 C   0  0  0  0  0  0  0  0  0  0  0  0
    1.9909   -7.0237    0.5657 C   0  0  0  0  0  0  0  0  0  0  0  0
    2.7555   -5.9751    1.0683 C   0  0  0  0  0  0  0  0  0  0  0  0
    0.4287    1.2267    1.9958 H   0  0  0  0  0  0  0  0  0  0  0  0
   -4.3425   -2.1714   -1.4006 H   0  0  0  0  0  0  0  0  0  0  0  0
   -6.8178    0.2144    1.1037 H   0  0  0  0  0  0  0  0  0  0  0  0
   -8.9847   -0.7697    1.7277 H   0  0  0  0  0  0  0  0  0  0  0  0
  -11.9215   -3.7287    0.1702 H   0  0  0  0  0  0  0  0  0  0  0  0
  -11.2651   -3.0519   -1.3252 H   0  0  0  0  0  0  0  0  0  0  0  0
  -10.3894   -4.3631   -0.4425 H   0  0  0  0  0  0  0  0  0  0  0  0
   -8.9607   -3.1134   -1.8855 H   0  0  0  0  0  0  0  0  0  0  0  0
   -6.8262   -2.1301   -2.5143 H   0  0  0  0  0  0  0  0  0  0  0  0
   -6.0406    1.7509   -0.9684 H   0  0  0  0  0  0  0  0  0  0  0  0
   -5.6888    3.5067   -2.7738 H   0  0  0  0  0  0  0  0  0  0  0  0
   -5.4834    5.9235   -2.8765 H   0  0  0  0  0  0  0  0  0  0  0  0
   -5.2910    8.0956   -1.9218 H   0  0  0  0  0  0  0  0  0  0  0  0
   -4.4124    7.9530   -3.4944 H   0  0  0  0  0  0  0  0  0  0  0  0
   -3.9854    9.2147   -2.3320 H   0  0  0  0  0  0  0  0  0  0  0  0
   -1.7407    5.7063   -0.7567 H   0  0  0  0  0  0  0  0  0  0  0  0
   -1.9508    3.2645   -0.6347 H   0  0  0  0  0  0  0  0  0  0  0  0
   -1.9637    1.2986   -2.2606 H   0  0  0  0  0  0  0  0  0  0  0  0
   -2.6755   -1.8380   -4.1536 H   0  0  0  0  0  0  0  0  0  0  0  0
    2.1861   -4.1251   -2.7857 H   0  0  0  0  0  0  0  0  0  0  0  0
    2.1605   -5.0714   -5.0264 H   0  0  0  0  0  0  0  0  0  0  0  0
    0.2518   -4.6379   -6.5525 H   0  0  0  0  0  0  0  0  0  0  0  0
   -1.6147   -3.2243   -5.8100 H   0  0  0  0  0  0  0  0  0  0  0  0
    2.0989   -0.6178    2.9356 H   0  0  0  0  0  0  0  0  0  0  0  0
    3.2248    3.3284    2.4754 H   0  0  0  0  0  0  0  0  0  0  0  0
    1.6033    4.8225    3.4993 H   0  0  0  0  0  0  0  0  0  0  0  0
   -0.6777    5.2525    4.0753 H   0  0  0  0  0  0  0  0  0  0  0  0
   -1.1548    5.7843    5.6921 H   0  0  0  0  0  0  0  0  0  0  0  0
    0.5037    6.0850    5.1604 H   0  0  0  0  0  0  0  0  0  0  0  0
    0.7526    1.8551    6.5072 H   0  0  0  0  0  0  0  0  0  0  0  0
    2.3989    0.3417    5.4778 H   0  0  0  0  0  0  0  0  0  0  0  0
    5.5727    1.8948    3.1350 H   0  0  0  0  0  0  0  0  0  0  0  0
    7.9137    0.4712    3.5185 H   0  0  0  0  0  0  0  0  0  0  0  0
   10.2349    0.9493    2.8595 H   0  0  0  0  0  0  0  0  0  0  0  0
   12.6235    1.6014   -0.8372 H   0  0  0  0  0  0  0  0  0  0  0  0
   11.3920    0.4651   -1.3998 H   0  0  0  0  0  0  0  0  0  0  0  0
   11.0397    2.2349   -1.3008 H   0  0  0  0  0  0  0  0  0  0  0  0
    9.0670    0.9071   -1.2857 H   0  0  0  0  0  0  0  0  0  0  0  0
    6.7651    0.4508   -0.6377 H   0  0  0  0  0  0  0  0  0  0  0  0
    5.5632   -1.6046    0.6226 H   0  0  0  0  0  0  0  0  0  0  0  0
    4.0455   -3.8665    1.9863 H   0  0  0  0  0  0  0  0  0  0  0  0
   -0.2256   -5.2611   -1.2627 H   0  0  0  0  0  0  0  0  0  0  0  0
    0.3043   -7.5545   -0.6557 H   0  0  0  0  0  0  0  0  0  0  0  0
    2.2182   -8.0490    0.8440 H   0  0  0  0  0  0  0  0  0  0  0  0
    3.5743   -6.2107    1.7460 H   0  0  0  0  0  0  0  0  0  0  0  0
  1  2  2  0  0  0  0
  2  3  1  0  0  0  0
  3 70  1  0  0  0  0
  4  2  1  0  0  0  0
  5  4  1  0  0  0  0
  6  7  1  0  0  0  0
  6  5  2  0  0  0  0
  7  8  1  0  0  0  0
  8 71  1  0  0  0  0
  8  9  2  0  0  0  0
  9 10  1  0  0  0  0
 10 11  2  0  0  0  0
 11 12  1  0  0  0  0
 11 72  1  0  0  0  0
 12 73  1  0  0  0  0
 13 14  1  0  0  0  0
 13 12  2  0  0  0  0
 15 74  1  0  0  0  0
 15 14  1  0  0  0  0
 16 13  1  0  0  0  0
 17 16  2  0  0  0  0
 17 10  1  0  0  0  0
 18  9  1  0  0  0  0
 18 79  1  0  0  0  0
 19 18  2  0  0  0  0
 20 19  1  0  0  0  0
 20 27  2  0  0  0  0
 21 20  1  0  0  0  0
 22 21  2  0  0  0  0
 22 23  1  0  0  0  0
 23 24  1  0  0  0  0
 23 26  2  0  0  0  0
 25 84  1  0  0  0  0
 25 82  1  0  0  0  0
 25 24  1  0  0  0  0
 26 27  1  0  0  0  0
 26 85  1  0  0  0  0
 27 86  1  0  0  0  0
 28  7  2  0  0  0  0
 28 19  1  0  0  0  0
 29  6  1  0  0  0  0
 30 29  2  0  0  0  0
 30 31  1  0  0  0  0
 31 36  2  0  0  0  0
 32 31  1  0  0  0  0
 32 89  1  0  0  0  0
 33 32  2  0  0  0  0
 34 35  2  0  0  0  0
 34 33  1  0  0  0  0
 35 30  1  0  0  0  0
 36  5  1  0  0  0  0
 36 37  1  0  0  0  0
 37 65  2  0  0  0  0
 37 38  1  0  0  0  0
 38 40  2  0  0  0  0
 39 38  1  0  0  0  0
 39  2  1  0  0  0  0
 40 63  1  0  0  0  0
 40 41  1  0  0  0  0
 41 42  1  0  0  0  0
 42 93  1  0  0  0  0
 42 43  2  0  0  0  0
 43 44  1  0  0  0  0
 44 51  1  0  0  0  0
 45 44  2  0  0  0  0
 45 46  1  0  0  0  0
 46 47  2  0  0  0  0
 47 50  1  0  0  0  0
 47 48  1  0  0  0  0
 49 98  1  0  0  0  0
 49 48  1  0  0  0  0
 49 97  1  0  0  0  0
 50 99  1  0  0  0  0
 51100  1  0  0  0  0
 51 50  2  0  0  0  0
 52 43  1  0  0  0  0
 52101  1  0  0  0  0
 53 52  2  0  0  0  0
 54 53  1  0  0  0  0
 54 55  2  0  0  0  0
 55102  1  0  0  0  0
 56 55  1  0  0  0  0
 56103  1  0  0  0  0
 57 56  2  0  0  0  0
 58 57  1  0  0  0  0
 59 58  1  0  0  0  0
 60 61  2  0  0  0  0
 60 57  1  0  0  0  0
 61 54  1  0  0  0  0
 62 41  2  0  0  0  0
 62 53  1  0  0  0  0
 63110  1  0  0  0  0
 64 69  1  0  0  0  0
 64 63  2  0  0  0  0
 65 64  1  0  0  0  0
 66 67  2  0  0  0  0
 66 65  1  0  0  0  0
 67 68  1  0  0  0  0
 68113  1  0  0  0  0
 68 69  2  0  0  0  0
 69114  1  0  0  0  0
 75 15  1  0  0  0  0
 76 15  1  0  0  0  0
 77 16  1  0  0  0  0
 78 17  1  0  0  0  0
 80 21  1  0  0  0  0
 81 22  1  0  0  0  0
 83 25  1  0  0  0  0
 87 28  1  0  0  0  0
 88 29  1  0  0  0  0
 90 33  1  0  0  0  0
 91 34  1  0  0  0  0
 92 35  1  0  0  0  0
 94 45  1  0  0  0  0
 95 46  1  0  0  0  0
 96 49  1  0  0  0  0
104 59  1  0  0  0  0
105 59  1  0  0  0  0
106 59  1  0  0  0  0
107 60  1  0  0  0  0
108 61  1  0  0  0  0
109 62  1  0  0  0  0
111 66  1  0  0  0  0
112 67  1  0  0  0  0
M  END
$$$$
