O=P1(O)OC2=C(C3=C(C)C=C(C)C=C3C)C=C4C(C=CC=C4)=C2C5=C(O1)[C@@]([C@@]6=C(C)C=C(C)C=C6C)=CC7=C5C=CC=C7
 OpenBabel09032010383D

 76 82  0  0  0  0  0  0  0  0999 V2000
    0.6241    2.6792    1.1290 O   0  0  0  0  0  0  0  0  0  0  0  0
    0.0257    1.6726    0.1974 P   0  0  0  0  0  0  0  0  0  0  0  0
   -0.7655    2.3899   -1.0056 O   0  0  0  0  0  0  0  0  0  0  0  0
   -1.0897    0.7211    0.8602 O   0  0  0  0  0  0  0  0  0  0  0  0
   -1.5424   -0.3856    0.1768 C   0  0  0  0  0  0  0  0  0  0  0  0
   -2.9014   -0.3803   -0.1906 C   0  0  0  0  0  0  0  0  0  0  0  0
   -3.7778    0.7871    0.0472 C   0  0  0  0  0  0  0  0  0  0  0  0
   -4.1081    1.6657   -1.0166 C   0  0  0  0  0  0  0  0  0  0  0  0
   -3.6427    1.4210   -2.4313 C   0  0  0  0  0  0  0  0  0  0  0  0
   -4.9370    2.7754   -0.7775 C   0  0  0  0  0  0  0  0  0  0  0  0
   -5.4217    3.0534    0.5019 C   0  0  0  0  0  0  0  0  0  0  0  0
   -6.3217    4.2305    0.7364 C   0  0  0  0  0  0  0  0  0  0  0  0
   -5.1102    2.1813    1.5472 C   0  0  0  0  0  0  0  0  0  0  0  0
   -4.3056    1.0481    1.3362 C   0  0  0  0  0  0  0  0  0  0  0  0
   -4.0088    0.1534    2.5134 C   0  0  0  0  0  0  0  0  0  0  0  0
   -3.4182   -1.5172   -0.8139 C   0  0  0  0  0  0  0  0  0  0  0  0
   -2.6055   -2.6108   -1.1194 C   0  0  0  0  0  0  0  0  0  0  0  0
   -1.2303   -2.6009   -0.7614 C   0  0  0  0  0  0  0  0  0  0  0  0
   -0.4628   -3.7060   -1.2119 C   0  0  0  0  0  0  0  0  0  0  0  0
   -1.0240   -4.7834   -1.9032 C   0  0  0  0  0  0  0  0  0  0  0  0
   -2.3789   -4.7874   -2.1898 C   0  0  0  0  0  0  0  0  0  0  0  0
   -3.1624   -3.7032   -1.8063 C   0  0  0  0  0  0  0  0  0  0  0  0
   -0.6743   -1.4869   -0.0300 C   0  0  0  0  0  0  0  0  0  0  0  0
    0.6840   -1.4603    0.4790 C   0  0  0  0  0  0  0  0  0  0  0  0
    1.5433   -0.3813    0.1551 C   0  0  0  0  0  0  0  0  0  0  0  0
    1.0446    0.6838   -0.5614 O   0  0  0  0  0  0  0  0  0  0  0  0
    2.9157   -0.3572    0.4599 C   0  0  0  0  0  0  0  0  0  0  0  0
    3.8001    0.7489    0.0378 C   0  0  0  0  0  0  0  0  0  0  0  0
    4.3001    0.8047   -1.2879 C   0  0  0  0  0  0  0  0  0  0  0  0
    3.9354   -0.2364   -2.3161 C   0  0  0  0  0  0  0  0  0  0  0  0
    5.1388    1.8633   -1.6768 C   0  0  0  0  0  0  0  0  0  0  0  0
    5.5033    2.8654   -0.7752 C   0  0  0  0  0  0  0  0  0  0  0  0
    6.4313    3.9664   -1.1945 C   0  0  0  0  0  0  0  0  0  0  0  0
    5.0356    2.7954    0.5389 C   0  0  0  0  0  0  0  0  0  0  0  0
    4.1772    1.7622    0.9534 C   0  0  0  0  0  0  0  0  0  0  0  0
    3.7252    1.7489    2.3920 C   0  0  0  0  0  0  0  0  0  0  0  0
    3.4475   -1.4301    1.1775 C   0  0  0  0  0  0  0  0  0  0  0  0
    2.6408   -2.4818    1.6180 C   0  0  0  0  0  0  0  0  0  0  0  0
    1.2570   -2.5018    1.2969 C   0  0  0  0  0  0  0  0  0  0  0  0
    0.4987   -3.5576    1.8643 C   0  0  0  0  0  0  0  0  0  0  0  0
    1.0758   -4.5662    2.6408 C   0  0  0  0  0  0  0  0  0  0  0  0
    2.4374   -4.5459    2.8954 C   0  0  0  0  0  0  0  0  0  0  0  0
    3.2130   -3.5057    2.3919 C   0  0  0  0  0  0  0  0  0  0  0  0
   -1.2943    3.1308   -0.6574 H   0  0  0  0  0  0  0  0  0  0  0  0
   -4.2852    0.6758   -2.9107 H   0  0  0  0  0  0  0  0  0  0  0  0
   -2.6052    1.0770   -2.4644 H   0  0  0  0  0  0  0  0  0  0  0  0
   -3.6847    2.3415   -3.0239 H   0  0  0  0  0  0  0  0  0  0  0  0
   -5.2072    3.4319   -1.6033 H   0  0  0  0  0  0  0  0  0  0  0  0
   -6.0816    5.0489    0.0495 H   0  0  0  0  0  0  0  0  0  0  0  0
   -6.2028    4.6166    1.7542 H   0  0  0  0  0  0  0  0  0  0  0  0
   -7.3659    3.9386    0.5880 H   0  0  0  0  0  0  0  0  0  0  0  0
   -5.5047    2.3814    2.5424 H   0  0  0  0  0  0  0  0  0  0  0  0
   -2.9864    0.3163    2.8670 H   0  0  0  0  0  0  0  0  0  0  0  0
   -4.6888    0.3569    3.3479 H   0  0  0  0  0  0  0  0  0  0  0  0
   -4.1436   -0.9003    2.2495 H   0  0  0  0  0  0  0  0  0  0  0  0
   -4.4713   -1.5271   -1.0933 H   0  0  0  0  0  0  0  0  0  0  0  0
    0.6116   -3.7388   -1.0395 H   0  0  0  0  0  0  0  0  0  0  0  0
   -0.3937   -5.6104   -2.2193 H   0  0  0  0  0  0  0  0  0  0  0  0
   -2.8232   -5.6201   -2.7277 H   0  0  0  0  0  0  0  0  0  0  0  0
   -4.2196   -3.7109   -2.0656 H   0  0  0  0  0  0  0  0  0  0  0  0
    4.5491   -0.1379   -3.2182 H   0  0  0  0  0  0  0  0  0  0  0  0
    4.1057   -1.2453   -1.9272 H   0  0  0  0  0  0  0  0  0  0  0  0
    2.8879   -0.1276   -2.6132 H   0  0  0  0  0  0  0  0  0  0  0  0
    5.5134    1.9051   -2.6980 H   0  0  0  0  0  0  0  0  0  0  0  0
    6.3053    4.2008   -2.2568 H   0  0  0  0  0  0  0  0  0  0  0  0
    6.2270    4.8847   -0.6339 H   0  0  0  0  0  0  0  0  0  0  0  0
    7.4694    3.6679   -1.0187 H   0  0  0  0  0  0  0  0  0  0  0  0
    5.3349    3.5612    1.2525 H   0  0  0  0  0  0  0  0  0  0  0  0
    3.8163    2.7427    2.8438 H   0  0  0  0  0  0  0  0  0  0  0  0
    4.3414    1.0526    2.9695 H   0  0  0  0  0  0  0  0  0  0  0  0
    2.6744    1.4600    2.4826 H   0  0  0  0  0  0  0  0  0  0  0  0
    4.5109   -1.4226    1.4157 H   0  0  0  0  0  0  0  0  0  0  0  0
   -0.5789   -3.6036    1.7165 H   0  0  0  0  0  0  0  0  0  0  0  0
    0.4537   -5.3593    3.0468 H   0  0  0  0  0  0  0  0  0  0  0  0
    2.8943   -5.3258    3.4981 H   0  0  0  0  0  0  0  0  0  0  0  0
    4.2767   -3.4929    2.6231 H   0  0  0  0  0  0  0  0  0  0  0  0
  2  4  1  0  0  0  0
  2  1  2  0  0  0  0
  3 44  1  0  0  0  0
  3  2  1  0  0  0  0
  5  4  1  0  0  0  0
  6  7  1  0  0  0  0
  6  5  1  0  0  0  0
  7 14  2  0  0  0  0
  8 10  2  0  0  0  0
  8  7  1  0  0  0  0
  9  8  1  0  0  0  0
 10 11  1  0  0  0  0
 11 12  1  0  0  0  0
 11 13  2  0  0  0  0
 12 50  1  0  0  0  0
 13 52  1  0  0  0  0
 14 13  1  0  0  0  0
 14 15  1  0  0  0  0
 15 53  1  0  0  0  0
 15 54  1  0  0  0  0
 16  6  2  0  0  0  0
 17 16  1  0  0  0  0
 17 18  1  0  0  0  0
 18 23  1  0  0  0  0
 19 57  1  0  0  0  0
 19 18  2  0  0  0  0
 20 19  1  0  0  0  0
 21 20  2  0  0  0  0
 21 22  1  0  0  0  0
 22 17  2  0  0  0  0
 23  5  2  0  0  0  0
 23 24  1  0  0  0  0
 24 39  2  0  0  0  0
 25 27  2  0  0  0  0
 25 24  1  0  0  0  0
 26 25  1  0  0  0  0
 26  2  1  0  0  0  0
 27 37  1  0  0  0  0
 28 27  1  0  0  0  0
 28 35  2  0  0  0  0
 29 28  1  0  0  0  0
 30 62  1  0  0  0  0
 30 29  1  0  0  0  0
 31 29  2  0  0  0  0
 31 32  1  0  0  0  0
 32 34  2  0  0  0  0
 33 67  1  0  0  0  0
 33 32  1  0  0  0  0
 33 66  1  0  0  0  0
 34 35  1  0  0  0  0
 34 68  1  0  0  0  0
 35 36  1  0  0  0  0
 36 71  1  0  0  0  0
 36 69  1  0  0  0  0
 36 70  1  0  0  0  0
 37 72  1  0  0  0  0
 37 38  2  0  0  0  0
 38 43  1  0  0  0  0
 39 38  1  0  0  0  0
 39 40  1  0  0  0  0
 40 41  2  0  0  0  0
 41 42  1  0  0  0  0
 41 74  1  0  0  0  0
 42 75  1  0  0  0  0
 43 76  1  0  0  0  0
 43 42  2  0  0  0  0
 45  9  1  0  0  0  0
 46  9  1  0  0  0  0
 47  9  1  0  0  0  0
 48 10  1  0  0  0  0
 49 12  1  0  0  0  0
 51 12  1  0  0  0  0
 55 15  1  0  0  0  0
 56 16  1  0  0  0  0
 58 20  1  0  0  0  0
 59 21  1  0  0  0  0
 60 22  1  0  0  0  0
 61 30  1  0  0  0  0
 63 30  1  0  0  0  0
 64 31  1  0  0  0  0
 65 33  1  0  0  0  0
 73 40  1  0  0  0  0
M  END
$$$$
