O=P1(O)OC2=C([Si](C3=CC=CC=C3)(C4=CC=CC=C4)C5=CC=CC=C5)C=C6C(C=CC=C6)=C2C7=C(O1)C([Si](C8=CC=CC=C8)(C9=CC=CC=C9)C%10=CC=CC=C%10)=CC%11=C7C=CC=C%11
 OpenBabel09032010383D

104114  0  0  0  0  0  0  0  0999 V2000
    0.7709    1.9631    1.4883 O   0  0  0  0  0  0  0  0  0  0  0  0
   -0.0168    1.2356    0.4428 P   0  0  0  0  0  0  0  0  0  0  0  0
   -1.0391    2.1920   -0.3496 O   0  0  0  0  0  0  0  0  0  0  0  0
    0.8505    0.6210   -0.7701 O   0  0  0  0  0  0  0  0  0  0  0  0
    1.6343   -0.4625   -0.4811 C   0  0  0  0  0  0  0  0  0  0  0  0
    3.0304   -0.2898   -0.4477 C   0  0  0  0  0  0  0  0  0  0  0  0
    3.9490    1.2997   -0.8358 Si  0  0  0  0  0  0  0  0  0  0  0  0
    5.0459    1.6253    0.6449 C   0  0  0  0  0  0  0  0  0  0  0  0
    4.4873    1.6773    1.9403 C   0  0  0  0  0  0  0  0  0  0  0  0
    5.2816    1.9104    3.0660 C   0  0  0  0  0  0  0  0  0  0  0  0
    6.6531    2.0918    2.9260 C   0  0  0  0  0  0  0  0  0  0  0  0
    7.2313    2.0360    1.6616 C   0  0  0  0  0  0  0  0  0  0  0  0
    6.4377    1.8011    0.5336 C   0  0  0  0  0  0  0  0  0  0  0  0
    2.8494    2.7712   -1.1773 C   0  0  0  0  0  0  0  0  0  0  0  0
    2.7635    3.8702   -0.3019 C   0  0  0  0  0  0  0  0  0  0  0  0
    1.9293    4.9586   -0.5786 C   0  0  0  0  0  0  0  0  0  0  0  0
    1.1574    4.9727   -1.7344 C   0  0  0  0  0  0  0  0  0  0  0  0
    1.2261    3.9036   -2.6200 C   0  0  0  0  0  0  0  0  0  0  0  0
    2.0769    2.8266   -2.3569 C   0  0  0  0  0  0  0  0  0  0  0  0
    4.9867    1.0839   -2.3858 C   0  0  0  0  0  0  0  0  0  0  0  0
    5.6777    2.1869   -2.9335 C   0  0  0  0  0  0  0  0  0  0  0  0
    6.4514    2.0602   -4.0906 C   0  0  0  0  0  0  0  0  0  0  0  0
    6.5477    0.8306   -4.7326 C   0  0  0  0  0  0  0  0  0  0  0  0
    5.8655   -0.2693   -4.2222 C   0  0  0  0  0  0  0  0  0  0  0  0
    5.0899   -0.1443   -3.0651 C   0  0  0  0  0  0  0  0  0  0  0  0
    3.7835   -1.4185   -0.0760 C   0  0  0  0  0  0  0  0  0  0  0  0
    3.1913   -2.6494    0.2309 C   0  0  0  0  0  0  0  0  0  0  0  0
    1.7848   -2.8019    0.1484 C   0  0  0  0  0  0  0  0  0  0  0  0
    1.2637   -4.0598    0.5480 C   0  0  0  0  0  0  0  0  0  0  0  0
    2.0816   -5.1201    0.9471 C   0  0  0  0  0  0  0  0  0  0  0  0
    3.4565   -4.9537    0.9789 C   0  0  0  0  0  0  0  0  0  0  0  0
    4.0061   -3.7237    0.6288 C   0  0  0  0  0  0  0  0  0  0  0  0
    0.9647   -1.6972   -0.2741 C   0  0  0  0  0  0  0  0  0  0  0  0
   -0.4640   -1.8035   -0.5175 C   0  0  0  0  0  0  0  0  0  0  0  0
   -1.4023   -0.9576    0.1535 C   0  0  0  0  0  0  0  0  0  0  0  0
   -0.9280    0.0241    0.9892 O   0  0  0  0  0  0  0  0  0  0  0  0
   -2.7997   -1.1492    0.1074 C   0  0  0  0  0  0  0  0  0  0  0  0
   -4.0813   -0.1897    1.0983 Si  0  0  0  0  0  0  0  0  0  0  0  0
   -5.1313    0.8622   -0.0493 C   0  0  0  0  0  0  0  0  0  0  0  0
   -4.9843    0.8259   -1.4489 C   0  0  0  0  0  0  0  0  0  0  0  0
   -5.7896    1.6075   -2.2850 C   0  0  0  0  0  0  0  0  0  0  0  0
   -6.7574    2.4478   -1.7440 C   0  0  0  0  0  0  0  0  0  0  0  0
   -6.9126    2.5191   -0.3641 C   0  0  0  0  0  0  0  0  0  0  0  0
   -6.1050    1.7425    0.4728 C   0  0  0  0  0  0  0  0  0  0  0  0
   -5.1658   -1.5014    1.9191 C   0  0  0  0  0  0  0  0  0  0  0  0
   -6.5705   -1.4166    1.9436 C   0  0  0  0  0  0  0  0  0  0  0  0
   -7.3477   -2.4057    2.5563 C   0  0  0  0  0  0  0  0  0  0  0  0
   -6.7409   -3.5059    3.1530 C   0  0  0  0  0  0  0  0  0  0  0  0
   -5.3554   -3.6206    3.1365 C   0  0  0  0  0  0  0  0  0  0  0  0
   -4.5771   -2.6324    2.5265 C   0  0  0  0  0  0  0  0  0  0  0  0
   -3.3542    0.9059    2.4165 C   0  0  0  0  0  0  0  0  0  0  0  0
   -3.0524    0.4240    3.7050 C   0  0  0  0  0  0  0  0  0  0  0  0
   -2.4982    1.2564    4.6835 C   0  0  0  0  0  0  0  0  0  0  0  0
   -2.2310    2.5908    4.3988 C   0  0  0  0  0  0  0  0  0  0  0  0
   -2.5196    3.0958    3.1367 C   0  0  0  0  0  0  0  0  0  0  0  0
   -3.0743    2.2646    2.1589 C   0  0  0  0  0  0  0  0  0  0  0  0
   -3.2686   -2.1813   -0.7292 C   0  0  0  0  0  0  0  0  0  0  0  0
   -2.4125   -2.9670   -1.5051 C   0  0  0  0  0  0  0  0  0  0  0  0
   -1.0123   -2.7776   -1.4253 C   0  0  0  0  0  0  0  0  0  0  0  0
   -0.2259   -3.5632   -2.3097 C   0  0  0  0  0  0  0  0  0  0  0  0
   -0.7793   -4.5158   -3.1702 C   0  0  0  0  0  0  0  0  0  0  0  0
   -2.1500   -4.7106   -3.1891 C   0  0  0  0  0  0  0  0  0  0  0  0
   -2.9608   -3.9361   -2.3648 C   0  0  0  0  0  0  0  0  0  0  0  0
   -0.5699    3.0130   -0.6025 H   0  0  0  0  0  0  0  0  0  0  0  0
    3.4152    1.5404    2.0946 H   0  0  0  0  0  0  0  0  0  0  0  0
    4.8232    1.9483    4.0510 H   0  0  0  0  0  0  0  0  0  0  0  0
    7.2702    2.2721    3.8016 H   0  0  0  0  0  0  0  0  0  0  0  0
    8.3041    2.1716    1.5496 H   0  0  0  0  0  0  0  0  0  0  0  0
    6.9375    1.7525   -0.4319 H   0  0  0  0  0  0  0  0  0  0  0  0
    3.3414    3.9038    0.6210 H   0  0  0  0  0  0  0  0  0  0  0  0
    1.8858    5.7944    0.1164 H   0  0  0  0  0  0  0  0  0  0  0  0
    0.4982    5.8101   -1.9415 H   0  0  0  0  0  0  0  0  0  0  0  0
    0.6137    3.9012   -3.5170 H   0  0  0  0  0  0  0  0  0  0  0  0
    2.1174    2.0158   -3.0861 H   0  0  0  0  0  0  0  0  0  0  0  0
    5.6196    3.1695   -2.4636 H   0  0  0  0  0  0  0  0  0  0  0  0
    6.9748    2.9252   -4.4899 H   0  0  0  0  0  0  0  0  0  0  0  0
    7.1484    0.7303   -5.6324 H   0  0  0  0  0  0  0  0  0  0  0  0
    5.9312   -1.2306   -4.7259 H   0  0  0  0  0  0  0  0  0  0  0  0
    4.5652   -1.0318   -2.7182 H   0  0  0  0  0  0  0  0  0  0  0  0
    4.8711   -1.3385   -0.0026 H   0  0  0  0  0  0  0  0  0  0  0  0
    0.1886   -4.2295    0.5666 H   0  0  0  0  0  0  0  0  0  0  0  0
    1.6372   -6.0681    1.2375 H   0  0  0  0  0  0  0  0  0  0  0  0
    4.1015   -5.7703    1.2903 H   0  0  0  0  0  0  0  0  0  0  0  0
    5.0872   -3.6054    0.6816 H   0  0  0  0  0  0  0  0  0  0  0  0
   -4.2385    0.1919   -1.9245 H   0  0  0  0  0  0  0  0  0  0  0  0
   -5.6553    1.5567   -3.3627 H   0  0  0  0  0  0  0  0  0  0  0  0
   -7.3862    3.0484   -2.3962 H   0  0  0  0  0  0  0  0  0  0  0  0
   -7.6636    3.1787    0.0645 H   0  0  0  0  0  0  0  0  0  0  0  0
   -6.2513    1.8332    1.5499 H   0  0  0  0  0  0  0  0  0  0  0  0
   -7.0963   -0.5847    1.4817 H   0  0  0  0  0  0  0  0  0  0  0  0
   -8.4310   -2.3142    2.5624 H   0  0  0  0  0  0  0  0  0  0  0  0
   -7.3469   -4.2735    3.6263 H   0  0  0  0  0  0  0  0  0  0  0  0
   -4.8749   -4.4800    3.5970 H   0  0  0  0  0  0  0  0  0  0  0  0
   -3.4949   -2.7639    2.5331 H   0  0  0  0  0  0  0  0  0  0  0  0
   -3.2391   -0.6125    3.9782 H   0  0  0  0  0  0  0  0  0  0  0  0
   -2.2729    0.8565    5.6690 H   0  0  0  0  0  0  0  0  0  0  0  0
   -1.7949    3.2341    5.1579 H   0  0  0  0  0  0  0  0  0  0  0  0
   -2.3081    4.1366    2.9070 H   0  0  0  0  0  0  0  0  0  0  0  0
   -3.2738    2.7003    1.1795 H   0  0  0  0  0  0  0  0  0  0  0  0
   -4.3428   -2.3730   -0.7964 H   0  0  0  0  0  0  0  0  0  0  0  0
    0.8538   -3.4316   -2.3495 H   0  0  0  0  0  0  0  0  0  0  0  0
   -0.1332   -5.0967   -3.8225 H   0  0  0  0  0  0  0  0  0  0  0  0
   -2.5913   -5.4505   -3.8513 H   0  0  0  0  0  0  0  0  0  0  0  0
   -4.0382   -4.0893   -2.4071 H   0  0  0  0  0  0  0  0  0  0  0  0
  2 36  1  0  0  0  0
  2  1  2  0  0  0  0
  3  2  1  0  0  0  0
  4  5  1  0  0  0  0
  4  2  1  0  0  0  0
  5  6  2  0  0  0  0
  5 33  1  0  0  0  0
  6 26  1  0  0  0  0
  7  6  1  0  0  0  0
  7  8  1  0  0  0  0
  8  9  1  0  0  0  0
  9 65  1  0  0  0  0
  9 10  2  0  0  0  0
 10 66  1  0  0  0  0
 11 10  1  0  0  0  0
 11 67  1  0  0  0  0
 12 11  2  0  0  0  0
 13  8  2  0  0  0  0
 13 12  1  0  0  0  0
 14  7  1  0  0  0  0
 14 15  2  0  0  0  0
 15 70  1  0  0  0  0
 16 15  1  0  0  0  0
 16 71  1  0  0  0  0
 17 16  2  0  0  0  0
 18 19  2  0  0  0  0
 18 17  1  0  0  0  0
 19 14  1  0  0  0  0
 20  7  1  0  0  0  0
 21 75  1  0  0  0  0
 21 20  1  0  0  0  0
 22 21  2  0  0  0  0
 23 24  2  0  0  0  0
 23 22  1  0  0  0  0
 24 25  1  0  0  0  0
 25 79  1  0  0  0  0
 25 20  2  0  0  0  0
 26 80  1  0  0  0  0
 26 27  2  0  0  0  0
 27 32  1  0  0  0  0
 28 27  1  0  0  0  0
 28 29  1  0  0  0  0
 29 81  1  0  0  0  0
 29 30  2  0  0  0  0
 30 31  1  0  0  0  0
 30 82  1  0  0  0  0
 31 83  1  0  0  0  0
 32 84  1  0  0  0  0
 32 31  2  0  0  0  0
 33 28  2  0  0  0  0
 34 33  1  0  0  0  0
 34 35  2  0  0  0  0
 35 36  1  0  0  0  0
 37 35  1  0  0  0  0
 37 38  1  0  0  0  0
 38 45  1  0  0  0  0
 38 51  1  0  0  0  0
 39 44  1  0  0  0  0
 39 38  1  0  0  0  0
 40 39  2  0  0  0  0
 41 42  2  0  0  0  0
 41 40  1  0  0  0  0
 42 43  1  0  0  0  0
 43 88  1  0  0  0  0
 43 44  2  0  0  0  0
 44 89  1  0  0  0  0
 45 46  2  0  0  0  0
 45 50  1  0  0  0  0
 46 47  1  0  0  0  0
 47 91  1  0  0  0  0
 47 48  2  0  0  0  0
 48 92  1  0  0  0  0
 49 48  1  0  0  0  0
 49 93  1  0  0  0  0
 50 94  1  0  0  0  0
 50 49  2  0  0  0  0
 51 52  1  0  0  0  0
 52 95  1  0  0  0  0
 52 53  2  0  0  0  0
 53 96  1  0  0  0  0
 54 53  1  0  0  0  0
 54 97  1  0  0  0  0
 55 54  2  0  0  0  0
 56 51  2  0  0  0  0
 56 55  1  0  0  0  0
 57 37  2  0  0  0  0
 58 59  1  0  0  0  0
 58 57  1  0  0  0  0
 59 34  1  0  0  0  0
 60 59  2  0  0  0  0
 61 60  1  0  0  0  0
 62 61  2  0  0  0  0
 62 63  1  0  0  0  0
 63 58  2  0  0  0  0
 64  3  1  0  0  0  0
 68 12  1  0  0  0  0
 69 13  1  0  0  0  0
 72 17  1  0  0  0  0
 73 18  1  0  0  0  0
 74 19  1  0  0  0  0
 76 22  1  0  0  0  0
 77 23  1  0  0  0  0
 78 24  1  0  0  0  0
 85 40  1  0  0  0  0
 86 41  1  0  0  0  0
 87 42  1  0  0  0  0
 90 46  1  0  0  0  0
 98 55  1  0  0  0  0
 99 56  1  0  0  0  0
100 57  1  0  0  0  0
101 60  1  0  0  0  0
102 61  1  0  0  0  0
103 62  1  0  0  0  0
104 63  1  0  0  0  0
M  END
$$$$
