O=P1(O)OC2=C([Si](C3=CC=CC=C3)(C)C4=CC=CC=C4)C=C5C(C=CC=C5)=C2C6=C(O1)C([Si](C7=CC=CC=C7)(C8=CC=CC=C8)C)=CC9=C6C=CC=C9
 OpenBabel09032010383D

 90 98  0  0  0  0  0  0  0  0999 V2000
   -0.8189   -2.2097    2.4580 O   0  0  0  0  0  0  0  0  0  0  0  0
   -0.0487   -1.6335    1.3100 P   0  0  0  0  0  0  0  0  0  0  0  0
    0.7962   -2.7419    0.5145 O   0  0  0  0  0  0  0  0  0  0  0  0
    1.0549   -0.5443    1.7373 O   0  0  0  0  0  0  0  0  0  0  0  0
    1.4776    0.4577    0.8967 C   0  0  0  0  0  0  0  0  0  0  0  0
    2.8729    0.5573    0.6921 C   0  0  0  0  0  0  0  0  0  0  0  0
    4.1205   -0.7039    1.4003 Si  0  0  0  0  0  0  0  0  0  0  0  0
    5.8403    0.0700    1.2772 C   0  0  0  0  0  0  0  0  0  0  0  0
    6.8467   -0.4549    0.4460 C   0  0  0  0  0  0  0  0  0  0  0  0
    8.1073    0.1451    0.3776 C   0  0  0  0  0  0  0  0  0  0  0  0
    8.3888    1.2739    1.1414 C   0  0  0  0  0  0  0  0  0  0  0  0
    7.4134    1.8034    1.9804 C   0  0  0  0  0  0  0  0  0  0  0  0
    6.1518    1.2069    2.0515 C   0  0  0  0  0  0  0  0  0  0  0  0
    3.7528   -1.2295    3.1398 C   0  0  0  0  0  0  0  0  0  0  0  0
    4.0331   -2.1119    0.1355 C   0  0  0  0  0  0  0  0  0  0  0  0
    3.9385   -1.8591   -1.2481 C   0  0  0  0  0  0  0  0  0  0  0  0
    3.8587   -2.9089   -2.1667 C   0  0  0  0  0  0  0  0  0  0  0  0
    3.8700   -4.2277   -1.7233 C   0  0  0  0  0  0  0  0  0  0  0  0
    3.9657   -4.4992   -0.3618 C   0  0  0  0  0  0  0  0  0  0  0  0
    4.0492   -3.4531    0.5610 C   0  0  0  0  0  0  0  0  0  0  0  0
    3.3374    1.6118   -0.1067 C   0  0  0  0  0  0  0  0  0  0  0  0
    2.4655    2.5171   -0.7124 C   0  0  0  0  0  0  0  0  0  0  0  0
    1.0679    2.4104   -0.5021 C   0  0  0  0  0  0  0  0  0  0  0  0
    0.2626    3.3119   -1.2496 C   0  0  0  0  0  0  0  0  0  0  0  0
    0.7993    4.2948   -2.0867 C   0  0  0  0  0  0  0  0  0  0  0  0
    2.1717    4.4041   -2.2265 C   0  0  0  0  0  0  0  0  0  0  0  0
    2.9980    3.5143   -1.5485 C   0  0  0  0  0  0  0  0  0  0  0  0
    0.5379    1.4008    0.3832 C   0  0  0  0  0  0  0  0  0  0  0  0
   -0.8734    1.3493    0.7228 C   0  0  0  0  0  0  0  0  0  0  0  0
   -1.6249    0.1729    0.4770 C   0  0  0  0  0  0  0  0  0  0  0  0
   -0.9410   -0.9707    0.1425 O   0  0  0  0  0  0  0  0  0  0  0  0
   -3.0344    0.1140    0.5056 C   0  0  0  0  0  0  0  0  0  0  0  0
   -4.0044   -1.4246   -0.0414 Si  0  0  0  0  0  0  0  0  0  0  0  0
   -3.5261   -1.7455   -1.8482 C   0  0  0  0  0  0  0  0  0  0  0  0
   -3.6530   -3.0383   -2.3918 C   0  0  0  0  0  0  0  0  0  0  0  0
   -3.3080   -3.2956   -3.7213 C   0  0  0  0  0  0  0  0  0  0  0  0
   -2.8326   -2.2692   -4.5324 C   0  0  0  0  0  0  0  0  0  0  0  0
   -2.7027   -0.9832   -4.0165 C   0  0  0  0  0  0  0  0  0  0  0  0
   -3.0459   -0.7217   -2.6875 C   0  0  0  0  0  0  0  0  0  0  0  0
   -5.8379   -0.9479   -0.0771 C   0  0  0  0  0  0  0  0  0  0  0  0
   -6.6501   -1.1809    1.0511 C   0  0  0  0  0  0  0  0  0  0  0  0
   -8.0027   -0.8278    1.0498 C   0  0  0  0  0  0  0  0  0  0  0  0
   -8.5700   -0.2363   -0.0749 C   0  0  0  0  0  0  0  0  0  0  0  0
   -7.7859    0.0034   -1.1993 C   0  0  0  0  0  0  0  0  0  0  0  0
   -6.4328   -0.3476   -1.2023 C   0  0  0  0  0  0  0  0  0  0  0  0
   -3.7002   -2.9062    1.0344 C   0  0  0  0  0  0  0  0  0  0  0  0
   -3.7093    1.2645    0.9363 C   0  0  0  0  0  0  0  0  0  0  0  0
   -3.0239    2.4196    1.3286 C   0  0  0  0  0  0  0  0  0  0  0  0
   -1.6098    2.4736    1.2394 C   0  0  0  0  0  0  0  0  0  0  0  0
   -0.9935    3.6595    1.7152 C   0  0  0  0  0  0  0  0  0  0  0  0
   -1.7276    4.7465    2.1971 C   0  0  0  0  0  0  0  0  0  0  0  0
   -3.1110    4.6803    2.2356 C   0  0  0  0  0  0  0  0  0  0  0  0
   -3.7533    3.5217    1.8083 C   0  0  0  0  0  0  0  0  0  0  0  0
    1.3156   -2.3880   -0.2310 H   0  0  0  0  0  0  0  0  0  0  0  0
    6.6737   -1.3413   -0.1624 H   0  0  0  0  0  0  0  0  0  0  0  0
    8.8714   -0.2742   -0.2723 H   0  0  0  0  0  0  0  0  0  0  0  0
    9.3696    1.7376    1.0862 H   0  0  0  0  0  0  0  0  0  0  0  0
    7.6353    2.6812    2.5824 H   0  0  0  0  0  0  0  0  0  0  0  0
    5.4122    1.6494    2.7186 H   0  0  0  0  0  0  0  0  0  0  0  0
    2.8394   -1.8283    3.2015 H   0  0  0  0  0  0  0  0  0  0  0  0
    3.6286   -0.3622    3.7956 H   0  0  0  0  0  0  0  0  0  0  0  0
    4.5686   -1.8365    3.5454 H   0  0  0  0  0  0  0  0  0  0  0  0
    3.9361   -0.8409   -1.6362 H   0  0  0  0  0  0  0  0  0  0  0  0
    3.7925   -2.6962   -3.2311 H   0  0  0  0  0  0  0  0  0  0  0  0
    3.8070   -5.0443   -2.4378 H   0  0  0  0  0  0  0  0  0  0  0  0
    3.9755   -5.5294   -0.0132 H   0  0  0  0  0  0  0  0  0  0  0  0
    4.1191   -3.7102    1.6173 H   0  0  0  0  0  0  0  0  0  0  0  0
    4.4053    1.7202   -0.3021 H   0  0  0  0  0  0  0  0  0  0  0  0
   -0.8231    3.2519   -1.2021 H   0  0  0  0  0  0  0  0  0  0  0  0
    0.1375    4.9644   -2.6293 H   0  0  0  0  0  0  0  0  0  0  0  0
    2.6002    5.1636   -2.8742 H   0  0  0  0  0  0  0  0  0  0  0  0
    4.0745    3.5990   -1.6903 H   0  0  0  0  0  0  0  0  0  0  0  0
   -4.0240   -3.8658   -1.7892 H   0  0  0  0  0  0  0  0  0  0  0  0
   -3.4137   -4.3002   -4.1229 H   0  0  0  0  0  0  0  0  0  0  0  0
   -2.5666   -2.4712   -5.5662 H   0  0  0  0  0  0  0  0  0  0  0  0
   -2.3347   -0.1790   -4.6483 H   0  0  0  0  0  0  0  0  0  0  0  0
   -2.9356    0.2984   -2.3233 H   0  0  0  0  0  0  0  0  0  0  0  0
   -6.2419   -1.6373    1.9522 H   0  0  0  0  0  0  0  0  0  0  0  0
   -8.6130   -1.0160    1.9296 H   0  0  0  0  0  0  0  0  0  0  0  0
   -9.6219    0.0365   -0.0761 H   0  0  0  0  0  0  0  0  0  0  0  0
   -8.2256    0.4635   -2.0806 H   0  0  0  0  0  0  0  0  0  0  0  0
   -5.8571   -0.1433   -2.1034 H   0  0  0  0  0  0  0  0  0  0  0  0
   -4.4285   -3.6976    0.8306 H   0  0  0  0  0  0  0  0  0  0  0  0
   -2.7057   -3.3262    0.8594 H   0  0  0  0  0  0  0  0  0  0  0  0
   -3.7773   -2.6490    2.0952 H   0  0  0  0  0  0  0  0  0  0  0  0
   -4.7982    1.2715    0.9927 H   0  0  0  0  0  0  0  0  0  0  0  0
    0.0914    3.7489    1.7261 H   0  0  0  0  0  0  0  0  0  0  0  0
   -1.2114    5.6375    2.5438 H   0  0  0  0  0  0  0  0  0  0  0  0
   -3.6911    5.5199    2.6088 H   0  0  0  0  0  0  0  0  0  0  0  0
   -4.8403    3.4818    1.8626 H   0  0  0  0  0  0  0  0  0  0  0  0
  2  4  1  0  0  0  0
  2  1  2  0  0  0  0
  3  2  1  0  0  0  0
  5  4  1  0  0  0  0
  6  5  1  0  0  0  0
  6  7  1  0  0  0  0
  7 14  1  0  0  0  0
  8  7  1  0  0  0  0
  8 13  2  0  0  0  0
  9  8  1  0  0  0  0
 10  9  2  0  0  0  0
 10 11  1  0  0  0  0
 11 12  2  0  0  0  0
 12 13  1  0  0  0  0
 12 58  1  0  0  0  0
 13 59  1  0  0  0  0
 14 60  1  0  0  0  0
 14 62  1  0  0  0  0
 14 61  1  0  0  0  0
 15 20  1  0  0  0  0
 15  7  1  0  0  0  0
 16 15  2  0  0  0  0
 17 18  2  0  0  0  0
 17 16  1  0  0  0  0
 18 19  1  0  0  0  0
 19 66  1  0  0  0  0
 19 20  2  0  0  0  0
 20 67  1  0  0  0  0
 21  6  2  0  0  0  0
 22 23  1  0  0  0  0
 22 21  1  0  0  0  0
 23 28  1  0  0  0  0
 24 69  1  0  0  0  0
 24 23  2  0  0  0  0
 25 24  1  0  0  0  0
 26 25  2  0  0  0  0
 26 27  1  0  0  0  0
 27 22  2  0  0  0  0
 28 29  1  0  0  0  0
 28  5  2  0  0  0  0
 29 49  2  0  0  0  0
 30 32  2  0  0  0  0
 30 29  1  0  0  0  0
 31 30  1  0  0  0  0
 31  2  1  0  0  0  0
 32 47  1  0  0  0  0
 33 32  1  0  0  0  0
 33 46  1  0  0  0  0
 34 33  1  0  0  0  0
 35 34  1  0  0  0  0
 35 73  1  0  0  0  0
 36 35  2  0  0  0  0
 37 38  2  0  0  0  0
 37 36  1  0  0  0  0
 38 39  1  0  0  0  0
 39 77  1  0  0  0  0
 39 34  2  0  0  0  0
 40 33  1  0  0  0  0
 40 41  2  0  0  0  0
 41 78  1  0  0  0  0
 42 41  1  0  0  0  0
 42 79  1  0  0  0  0
 43 42  2  0  0  0  0
 44 43  1  0  0  0  0
 45 44  2  0  0  0  0
 45 40  1  0  0  0  0
 46 85  1  0  0  0  0
 47 86  1  0  0  0  0
 47 48  2  0  0  0  0
 48 53  1  0  0  0  0
 49 48  1  0  0  0  0
 49 50  1  0  0  0  0
 50 87  1  0  0  0  0
 50 51  2  0  0  0  0
 51 52  1  0  0  0  0
 51 88  1  0  0  0  0
 52 89  1  0  0  0  0
 53 90  1  0  0  0  0
 53 52  2  0  0  0  0
 54  3  1  0  0  0  0
 55  9  1  0  0  0  0
 56 10  1  0  0  0  0
 57 11  1  0  0  0  0
 63 16  1  0  0  0  0
 64 17  1  0  0  0  0
 65 18  1  0  0  0  0
 68 21  1  0  0  0  0
 70 25  1  0  0  0  0
 71 26  1  0  0  0  0
 72 27  1  0  0  0  0
 74 36  1  0  0  0  0
 75 37  1  0  0  0  0
 76 38  1  0  0  0  0
 80 43  1  0  0  0  0
 81 44  1  0  0  0  0
 82 45  1  0  0  0  0
 83 46  1  0  0  0  0
 84 46  1  0  0  0  0
M  END
$$$$
