O=P1(O)OC2=C([Si](C3=CC=CC=C3)(C4=CC=CC=C4)C5=CC=CC=C5)C=C6C(C=CC=C6)=C2C7=C(O1)C([Si](C8=CC=CC=C8)(C9=CC=CC=C9)C%10=CC=CC=C%10)=CC%11=C7C=CC=C%11
 OpenBabel09032010383D

104114  0  0  0  0  0  0  0  0999 V2000
    1.2301    0.1889    2.3739 O   0  0  0  0  0  0  0  0  0  0  0  0
    0.2864    0.4358    1.2387 P   0  0  0  0  0  0  0  0  0  0  0  0
   -0.4866    1.8368    1.3914 O   0  0  0  0  0  0  0  0  0  0  0  0
    0.9559    0.5926   -0.2191 O   0  0  0  0  0  0  0  0  0  0  0  0
    1.4646   -0.5411   -0.7939 C   0  0  0  0  0  0  0  0  0  0  0  0
    2.8590   -0.6266   -0.9696 C   0  0  0  0  0  0  0  0  0  0  0  0
    4.0877    0.7403   -0.5774 Si  0  0  0  0  0  0  0  0  0  0  0  0
    3.3033    2.2646    0.1773 C   0  0  0  0  0  0  0  0  0  0  0  0
    2.7412    3.2883   -0.6090 C   0  0  0  0  0  0  0  0  0  0  0  0
    2.1497    4.4150   -0.0256 C   0  0  0  0  0  0  0  0  0  0  0  0
    2.1131    4.5531    1.3579 C   0  0  0  0  0  0  0  0  0  0  0  0
    2.6658    3.5627    2.1605 C   0  0  0  0  0  0  0  0  0  0  0  0
    3.2466    2.4313    1.5776 C   0  0  0  0  0  0  0  0  0  0  0  0
    5.4163    0.1461    0.6035 C   0  0  0  0  0  0  0  0  0  0  0  0
    5.4272   -1.1565    1.1383 C   0  0  0  0  0  0  0  0  0  0  0  0
    6.4280   -1.5702    2.0246 C   0  0  0  0  0  0  0  0  0  0  0  0
    7.4314   -0.6884    2.4115 C   0  0  0  0  0  0  0  0  0  0  0  0
    7.4319    0.6118    1.9203 C   0  0  0  0  0  0  0  0  0  0  0  0
    6.4361    1.0252    1.0312 C   0  0  0  0  0  0  0  0  0  0  0  0
    4.8399    1.1817   -2.2483 C   0  0  0  0  0  0  0  0  0  0  0  0
    4.0076    1.3599   -3.3760 C   0  0  0  0  0  0  0  0  0  0  0  0
    4.5359    1.6824   -4.6296 C   0  0  0  0  0  0  0  0  0  0  0  0
    5.9090    1.8247   -4.7913 C   0  0  0  0  0  0  0  0  0  0  0  0
    6.7528    1.6401   -3.7013 C   0  0  0  0  0  0  0  0  0  0  0  0
    6.2259    1.3198   -2.4454 C   0  0  0  0  0  0  0  0  0  0  0  0
    3.3403   -1.8105   -1.5570 C   0  0  0  0  0  0  0  0  0  0  0  0
    2.4961   -2.8754   -1.8921 C   0  0  0  0  0  0  0  0  0  0  0  0
    1.0952   -2.7506   -1.7205 C   0  0  0  0  0  0  0  0  0  0  0  0
    0.3169   -3.8990   -2.0137 C   0  0  0  0  0  0  0  0  0  0  0  0
    0.8796   -5.0816   -2.5006 C   0  0  0  0  0  0  0  0  0  0  0  0
    2.2483   -5.1599   -2.7029 C   0  0  0  0  0  0  0  0  0  0  0  0
    3.0510   -4.0641   -2.3973 C   0  0  0  0  0  0  0  0  0  0  0  0
    0.5341   -1.5165   -1.2418 C   0  0  0  0  0  0  0  0  0  0  0  0
   -0.8878   -1.2072   -1.2730 C   0  0  0  0  0  0  0  0  0  0  0  0
   -1.5898   -0.7684   -0.1060 C   0  0  0  0  0  0  0  0  0  0  0  0
   -0.8912   -0.6482    1.0713 O   0  0  0  0  0  0  0  0  0  0  0  0
   -2.9836   -0.5451   -0.0565 C   0  0  0  0  0  0  0  0  0  0  0  0
   -3.9449   -0.0319    1.4792 Si  0  0  0  0  0  0  0  0  0  0  0  0
   -5.7112   -0.6886    1.3081 C   0  0  0  0  0  0  0  0  0  0  0  0
   -6.8353    0.1178    1.5708 C   0  0  0  0  0  0  0  0  0  0  0  0
   -8.1356   -0.3788    1.4280 C   0  0  0  0  0  0  0  0  0  0  0  0
   -8.3452   -1.6910    1.0174 C   0  0  0  0  0  0  0  0  0  0  0  0
   -7.2545   -2.5102    0.7476 C   0  0  0  0  0  0  0  0  0  0  0  0
   -5.9539   -2.0162    0.8909 C   0  0  0  0  0  0  0  0  0  0  0  0
   -3.2070   -0.7228    3.0487 C   0  0  0  0  0  0  0  0  0  0  0  0
   -3.5244   -2.0134    3.5156 C   0  0  0  0  0  0  0  0  0  0  0  0
   -2.9692   -2.5213    4.6956 C   0  0  0  0  0  0  0  0  0  0  0  0
   -2.0765   -1.7555    5.4366 C   0  0  0  0  0  0  0  0  0  0  0  0
   -1.7377   -0.4812    4.9979 C   0  0  0  0  0  0  0  0  0  0  0  0
   -2.2980    0.0290    3.8226 C   0  0  0  0  0  0  0  0  0  0  0  0
   -4.0186    1.8393    1.5691 C   0  0  0  0  0  0  0  0  0  0  0  0
   -4.4360    2.4917    2.7496 C   0  0  0  0  0  0  0  0  0  0  0  0
   -4.4950    3.8859    2.8301 C   0  0  0  0  0  0  0  0  0  0  0  0
   -4.1407    4.6629    1.7326 C   0  0  0  0  0  0  0  0  0  0  0  0
   -3.7267    4.0465    0.5562 C   0  0  0  0  0  0  0  0  0  0  0  0
   -3.6664    2.6513    0.4737 C   0  0  0  0  0  0  0  0  0  0  0  0
   -3.6854   -0.6952   -1.2659 C   0  0  0  0  0  0  0  0  0  0  0  0
   -3.0588   -1.0623   -2.4598 C   0  0  0  0  0  0  0  0  0  0  0  0
   -1.6633   -1.3023   -2.4863 C   0  0  0  0  0  0  0  0  0  0  0  0
   -1.1097   -1.5737   -3.7673 C   0  0  0  0  0  0  0  0  0  0  0  0
   -1.8864   -1.6768   -4.9254 C   0  0  0  0  0  0  0  0  0  0  0  0
   -3.2549   -1.4855   -4.8538 C   0  0  0  0  0  0  0  0  0  0  0  0
   -3.8341   -1.1701   -3.6290 C   0  0  0  0  0  0  0  0  0  0  0  0
    0.1579    2.5405    1.5957 H   0  0  0  0  0  0  0  0  0  0  0  0
    2.7478    3.2313   -1.6957 H   0  0  0  0  0  0  0  0  0  0  0  0
    1.7243    5.1892   -0.6599 H   0  0  0  0  0  0  0  0  0  0  0  0
    1.6602    5.4327    1.8081 H   0  0  0  0  0  0  0  0  0  0  0  0
    2.6448    3.6593    3.2439 H   0  0  0  0  0  0  0  0  0  0  0  0
    3.6440    1.6676    2.2491 H   0  0  0  0  0  0  0  0  0  0  0  0
    4.6504   -1.8783    0.8929 H   0  0  0  0  0  0  0  0  0  0  0  0
    6.4158   -2.5831    2.4203 H   0  0  0  0  0  0  0  0  0  0  0  0
    8.2031   -1.0112    3.1043 H   0  0  0  0  0  0  0  0  0  0  0  0
    8.2024    1.3116    2.2323 H   0  0  0  0  0  0  0  0  0  0  0  0
    6.4666    2.0577    0.6804 H   0  0  0  0  0  0  0  0  0  0  0  0
    2.9259    1.2456   -3.2973 H   0  0  0  0  0  0  0  0  0  0  0  0
    3.8719    1.8161   -5.4798 H   0  0  0  0  0  0  0  0  0  0  0  0
    6.3220    2.0710   -5.7654 H   0  0  0  0  0  0  0  0  0  0  0  0
    7.8281    1.7401   -3.8254 H   0  0  0  0  0  0  0  0  0  0  0  0
    6.9337    1.1722   -1.6334 H   0  0  0  0  0  0  0  0  0  0  0  0
    4.4114   -1.9228   -1.7416 H   0  0  0  0  0  0  0  0  0  0  0  0
   -0.7596   -3.8879   -1.8506 H   0  0  0  0  0  0  0  0  0  0  0  0
    0.2440   -5.9360   -2.7158 H   0  0  0  0  0  0  0  0  0  0  0  0
    2.6951   -6.0740   -3.0835 H   0  0  0  0  0  0  0  0  0  0  0  0
    4.1260   -4.1509   -2.5459 H   0  0  0  0  0  0  0  0  0  0  0  0
   -6.7290    1.1537    1.8865 H   0  0  0  0  0  0  0  0  0  0  0  0
   -8.9847    0.2668    1.6375 H   0  0  0  0  0  0  0  0  0  0  0  0
   -9.3568   -2.0729    0.9065 H   0  0  0  0  0  0  0  0  0  0  0  0
   -7.4150   -3.5355    0.4230 H   0  0  0  0  0  0  0  0  0  0  0  0
   -5.1270   -2.6887    0.6617 H   0  0  0  0  0  0  0  0  0  0  0  0
   -4.2119   -2.6569    2.9720 H   0  0  0  0  0  0  0  0  0  0  0  0
   -3.2345   -3.5206    5.0313 H   0  0  0  0  0  0  0  0  0  0  0  0
   -1.6412   -2.1533    6.3490 H   0  0  0  0  0  0  0  0  0  0  0  0
   -1.0289    0.1185    5.5630 H   0  0  0  0  0  0  0  0  0  0  0  0
   -1.9997    1.0319    3.5183 H   0  0  0  0  0  0  0  0  0  0  0  0
   -4.7223    1.9172    3.6314 H   0  0  0  0  0  0  0  0  0  0  0  0
   -4.8176    4.3619    3.7525 H   0  0  0  0  0  0  0  0  0  0  0  0
   -4.1864    5.7466    1.7937 H   0  0  0  0  0  0  0  0  0  0  0  0
   -3.4458    4.6499   -0.3033 H   0  0  0  0  0  0  0  0  0  0  0  0
   -3.3273    2.2163   -0.4651 H   0  0  0  0  0  0  0  0  0  0  0  0
   -4.7600   -0.5013   -1.2956 H   0  0  0  0  0  0  0  0  0  0  0  0
   -0.0360   -1.7012   -3.8888 H   0  0  0  0  0  0  0  0  0  0  0  0
   -1.4125   -1.9013   -5.8768 H   0  0  0  0  0  0  0  0  0  0  0  0
   -3.8686   -1.5628   -5.7469 H   0  0  0  0  0  0  0  0  0  0  0  0
   -4.9091   -0.9983   -3.5954 H   0  0  0  0  0  0  0  0  0  0  0  0
  2  3  1  0  0  0  0
  2  1  2  0  0  0  0
  3 64  1  0  0  0  0
  4  2  1  0  0  0  0
  5  4  1  0  0  0  0
  6  5  1  0  0  0  0
  6  7  1  0  0  0  0
  7  8  1  0  0  0  0
  7 14  1  0  0  0  0
  8 13  2  0  0  0  0
  9 10  2  0  0  0  0
  9  8  1  0  0  0  0
 10 11  1  0  0  0  0
 11 67  1  0  0  0  0
 11 12  2  0  0  0  0
 12 68  1  0  0  0  0
 13 12  1  0  0  0  0
 13 69  1  0  0  0  0
 14 19  2  0  0  0  0
 14 15  1  0  0  0  0
 15 16  2  0  0  0  0
 16 17  1  0  0  0  0
 16 71  1  0  0  0  0
 17 72  1  0  0  0  0
 18 73  1  0  0  0  0
 18 17  2  0  0  0  0
 19 18  1  0  0  0  0
 20  7  1  0  0  0  0
 21 75  1  0  0  0  0
 21 20  2  0  0  0  0
 22 21  1  0  0  0  0
 23 22  2  0  0  0  0
 23 24  1  0  0  0  0
 24 25  2  0  0  0  0
 25 20  1  0  0  0  0
 25 79  1  0  0  0  0
 26  6  2  0  0  0  0
 27 28  1  0  0  0  0
 27 26  1  0  0  0  0
 28 33  1  0  0  0  0
 29 81  1  0  0  0  0
 29 28  2  0  0  0  0
 30 29  1  0  0  0  0
 31 30  2  0  0  0  0
 31 32  1  0  0  0  0
 32 27  2  0  0  0  0
 33  5  2  0  0  0  0
 34 33  1  0  0  0  0
 34 35  2  0  0  0  0
 35 37  1  0  0  0  0
 35 36  1  0  0  0  0
 36  2  1  0  0  0  0
 37 38  1  0  0  0  0
 38 51  1  0  0  0  0
 38 45  1  0  0  0  0
 39 38  1  0  0  0  0
 39 40  2  0  0  0  0
 40 85  1  0  0  0  0
 41 40  1  0  0  0  0
 41 86  1  0  0  0  0
 42 41  2  0  0  0  0
 43 44  2  0  0  0  0
 43 42  1  0  0  0  0
 44 39  1  0  0  0  0
 45 46  2  0  0  0  0
 45 50  1  0  0  0  0
 46 47  1  0  0  0  0
 47 91  1  0  0  0  0
 47 48  2  0  0  0  0
 48 92  1  0  0  0  0
 49 48  1  0  0  0  0
 49 93  1  0  0  0  0
 50 49  2  0  0  0  0
 51 52  2  0  0  0  0
 52 53  1  0  0  0  0
 52 95  1  0  0  0  0
 53 96  1  0  0  0  0
 54 97  1  0  0  0  0
 54 53  2  0  0  0  0
 55 54  1  0  0  0  0
 56 55  2  0  0  0  0
 56 51  1  0  0  0  0
 57 37  2  0  0  0  0
 58 57  1  0  0  0  0
 59 58  1  0  0  0  0
 59 34  1  0  0  0  0
 60 59  2  0  0  0  0
 61 62  2  0  0  0  0
 61 60  1  0  0  0  0
 62 63  1  0  0  0  0
 63104  1  0  0  0  0
 63 58  2  0  0  0  0
 65  9  1  0  0  0  0
 66 10  1  0  0  0  0
 70 15  1  0  0  0  0
 74 19  1  0  0  0  0
 76 22  1  0  0  0  0
 77 23  1  0  0  0  0
 78 24  1  0  0  0  0
 80 26  1  0  0  0  0
 82 30  1  0  0  0  0
 83 31  1  0  0  0  0
 84 32  1  0  0  0  0
 87 42  1  0  0  0  0
 88 43  1  0  0  0  0
 89 44  1  0  0  0  0
 90 46  1  0  0  0  0
 94 50  1  0  0  0  0
 98 55  1  0  0  0  0
 99 56  1  0  0  0  0
100 57  1  0  0  0  0
101 60  1  0  0  0  0
102 61  1  0  0  0  0
103 62  1  0  0  0  0
M  END
$$$$
