O=P1(O)OC2=C(C3=C(OC)C=CC=C3OC)C=C4C(C=CC=C4)=C2C5=C(O1)[C@@]([C@@]6=C(OC)C=CC=C6OC)=CC7=C5C=CC=C7
 OpenBabel09032010373D

 74 80  0  0  0  0  0  0  0  0999 V2000
    0.9183    2.8849    0.4496 O   0  0  0  0  0  0  0  0  0  0  0  0
    0.2236    1.8142   -0.3333 P   0  0  0  0  0  0  0  0  0  0  0  0
   -0.4367    2.3750   -1.6891 O   0  0  0  0  0  0  0  0  0  0  0  0
    1.1254    0.5883   -0.8560 O   0  0  0  0  0  0  0  0  0  0  0  0
    1.5009   -0.3510    0.0778 C   0  0  0  0  0  0  0  0  0  0  0  0
    2.8605   -0.4023    0.4284 C   0  0  0  0  0  0  0  0  0  0  0  0
    3.8663    0.4906   -0.1850 C   0  0  0  0  0  0  0  0  0  0  0  0
    4.3502    0.2458   -1.4928 C   0  0  0  0  0  0  0  0  0  0  0  0
    3.8557   -0.8717   -2.1229 O   0  0  0  0  0  0  0  0  0  0  0  0
    4.1623   -1.0403   -3.4994 C   0  0  0  0  0  0  0  0  0  0  0  0
    5.2980    1.1056   -2.0603 C   0  0  0  0  0  0  0  0  0  0  0  0
    5.7765    2.2022   -1.3435 C   0  0  0  0  0  0  0  0  0  0  0  0
    5.3108    2.4537   -0.0559 C   0  0  0  0  0  0  0  0  0  0  0  0
    4.3512    1.6152    0.5191 C   0  0  0  0  0  0  0  0  0  0  0  0
    3.8853    1.8082    1.7978 O   0  0  0  0  0  0  0  0  0  0  0  0
    3.6630    3.1708    2.1521 C   0  0  0  0  0  0  0  0  0  0  0  0
    3.2552   -1.3398    1.3849 C   0  0  0  0  0  0  0  0  0  0  0  0
    2.3302   -2.1872    2.0005 C   0  0  0  0  0  0  0  0  0  0  0  0
    0.9610   -2.1385    1.6261 C   0  0  0  0  0  0  0  0  0  0  0  0
    0.0801   -2.9721    2.3615 C   0  0  0  0  0  0  0  0  0  0  0  0
    0.5266   -3.8440    3.3586 C   0  0  0  0  0  0  0  0  0  0  0  0
    1.8753   -3.9017    3.6709 C   0  0  0  0  0  0  0  0  0  0  0  0
    2.7697   -3.0729    2.9995 C   0  0  0  0  0  0  0  0  0  0  0  0
    0.5241   -1.2401    0.5852 C   0  0  0  0  0  0  0  0  0  0  0  0
   -0.8143   -1.2322    0.0325 C   0  0  0  0  0  0  0  0  0  0  0  0
   -1.5721   -0.0341   -0.0148 C   0  0  0  0  0  0  0  0  0  0  0  0
   -1.0292    1.1507    0.4349 O   0  0  0  0  0  0  0  0  0  0  0  0
   -2.9164    0.0159   -0.4253 C   0  0  0  0  0  0  0  0  0  0  0  0
   -3.6936    1.2701   -0.4215 C   0  0  0  0  0  0  0  0  0  0  0  0
   -3.7243    2.1108   -1.5584 C   0  0  0  0  0  0  0  0  0  0  0  0
   -2.9716    1.6955   -2.6349 O   0  0  0  0  0  0  0  0  0  0  0  0
   -3.0870    2.4495   -3.8381 C   0  0  0  0  0  0  0  0  0  0  0  0
   -4.4712    3.2954   -1.5316 C   0  0  0  0  0  0  0  0  0  0  0  0
   -5.2030    3.6472   -0.3954 C   0  0  0  0  0  0  0  0  0  0  0  0
   -5.1861    2.8268    0.7276 C   0  0  0  0  0  0  0  0  0  0  0  0
   -4.4227    1.6583    0.7198 C   0  0  0  0  0  0  0  0  0  0  0  0
   -4.4428    0.8336    1.8191 O   0  0  0  0  0  0  0  0  0  0  0  0
   -3.7379    1.4242    2.9119 C   0  0  0  0  0  0  0  0  0  0  0  0
   -3.5237   -1.1660   -0.8511 C   0  0  0  0  0  0  0  0  0  0  0  0
   -2.8146   -2.3667   -0.9094 C   0  0  0  0  0  0  0  0  0  0  0  0
   -1.4566   -2.4128   -0.4956 C   0  0  0  0  0  0  0  0  0  0  0  0
   -0.7907   -3.6511   -0.6872 C   0  0  0  0  0  0  0  0  0  0  0  0
   -1.4362   -4.7868   -1.1852 C   0  0  0  0  0  0  0  0  0  0  0  0
   -2.7759   -4.7221   -1.5309 C   0  0  0  0  0  0  0  0  0  0  0  0
   -3.4578   -3.5162   -1.4002 C   0  0  0  0  0  0  0  0  0  0  0  0
   -1.0854    1.7487   -2.0661 H   0  0  0  0  0  0  0  0  0  0  0  0
    5.2290   -1.2413   -3.6416 H   0  0  0  0  0  0  0  0  0  0  0  0
    3.6098   -1.9134   -3.8599 H   0  0  0  0  0  0  0  0  0  0  0  0
    3.8387   -0.1761   -4.0890 H   0  0  0  0  0  0  0  0  0  0  0  0
    5.6930    0.9412   -3.0568 H   0  0  0  0  0  0  0  0  0  0  0  0
    6.5207    2.8583   -1.7876 H   0  0  0  0  0  0  0  0  0  0  0  0
    5.7149    3.2993    0.4912 H   0  0  0  0  0  0  0  0  0  0  0  0
    4.5878    3.6124    2.5366 H   0  0  0  0  0  0  0  0  0  0  0  0
    3.2750    3.7658    1.3186 H   0  0  0  0  0  0  0  0  0  0  0  0
    2.9214    3.1910    2.9563 H   0  0  0  0  0  0  0  0  0  0  0  0
    4.3057   -1.3816    1.6690 H   0  0  0  0  0  0  0  0  0  0  0  0
   -0.9917   -2.9433    2.1725 H   0  0  0  0  0  0  0  0  0  0  0  0
   -0.1865   -4.4686    3.8897 H   0  0  0  0  0  0  0  0  0  0  0  0
    2.2313   -4.5752    4.4454 H   0  0  0  0  0  0  0  0  0  0  0  0
    3.8223   -3.1130    3.2740 H   0  0  0  0  0  0  0  0  0  0  0  0
   -2.6837    3.4589   -3.7081 H   0  0  0  0  0  0  0  0  0  0  0  0
   -2.4860    1.9481   -4.6027 H   0  0  0  0  0  0  0  0  0  0  0  0
   -4.1227    2.4755   -4.1924 H   0  0  0  0  0  0  0  0  0  0  0  0
   -4.5035    3.9722   -2.3791 H   0  0  0  0  0  0  0  0  0  0  0  0
   -5.7881    4.5635   -0.3884 H   0  0  0  0  0  0  0  0  0  0  0  0
   -5.7717    3.0935    1.6023 H   0  0  0  0  0  0  0  0  0  0  0  0
   -4.3446    2.2007    3.3888 H   0  0  0  0  0  0  0  0  0  0  0  0
   -2.7700    1.8337    2.6018 H   0  0  0  0  0  0  0  0  0  0  0  0
   -3.5515    0.6399    3.6516 H   0  0  0  0  0  0  0  0  0  0  0  0
   -4.5667   -1.1338   -1.1638 H   0  0  0  0  0  0  0  0  0  0  0  0
    0.2694   -3.7486   -0.4584 H   0  0  0  0  0  0  0  0  0  0  0  0
   -0.8827   -5.7144   -1.3035 H   0  0  0  0  0  0  0  0  0  0  0  0
   -3.2861   -5.5999   -1.9173 H   0  0  0  0  0  0  0  0  0  0  0  0
   -4.5037   -3.4768   -1.6997 H   0  0  0  0  0  0  0  0  0  0  0  0
  2 27  1  0  0  0  0
  2  1  2  0  0  0  0
  3  2  1  0  0  0  0
  4  2  1  0  0  0  0
  4  5  1  0  0  0  0
  5  6  2  0  0  0  0
  5 24  1  0  0  0  0
  6 17  1  0  0  0  0
  7  6  1  0  0  0  0
  7 14  2  0  0  0  0
  8  7  1  0  0  0  0
  9  8  1  0  0  0  0
 10  9  1  0  0  0  0
 11  8  2  0  0  0  0
 11 12  1  0  0  0  0
 12 13  2  0  0  0  0
 13 52  1  0  0  0  0
 13 14  1  0  0  0  0
 14 15  1  0  0  0  0
 15 16  1  0  0  0  0
 16 53  1  0  0  0  0
 16 55  1  0  0  0  0
 17 56  1  0  0  0  0
 17 18  2  0  0  0  0
 18 23  1  0  0  0  0
 19 18  1  0  0  0  0
 19 20  1  0  0  0  0
 20 21  2  0  0  0  0
 21 22  1  0  0  0  0
 21 58  1  0  0  0  0
 22 59  1  0  0  0  0
 23 60  1  0  0  0  0
 23 22  2  0  0  0  0
 24 19  2  0  0  0  0
 25 24  1  0  0  0  0
 26 25  1  0  0  0  0
 26 27  1  0  0  0  0
 28 29  1  0  0  0  0
 28 26  2  0  0  0  0
 29 36  2  0  0  0  0
 30 33  2  0  0  0  0
 30 29  1  0  0  0  0
 31 30  1  0  0  0  0
 32 61  1  0  0  0  0
 32 31  1  0  0  0  0
 33 34  1  0  0  0  0
 34 65  1  0  0  0  0
 34 35  2  0  0  0  0
 35 66  1  0  0  0  0
 36 35  1  0  0  0  0
 36 37  1  0  0  0  0
 37 38  1  0  0  0  0
 38 67  1  0  0  0  0
 38 69  1  0  0  0  0
 39 28  1  0  0  0  0
 40 39  2  0  0  0  0
 40 41  1  0  0  0  0
 41 25  2  0  0  0  0
 42 41  1  0  0  0  0
 42 71  1  0  0  0  0
 43 42  2  0  0  0  0
 44 45  2  0  0  0  0
 44 43  1  0  0  0  0
 45 40  1  0  0  0  0
 46  3  1  0  0  0  0
 47 10  1  0  0  0  0
 48 10  1  0  0  0  0
 49 10  1  0  0  0  0
 50 11  1  0  0  0  0
 51 12  1  0  0  0  0
 54 16  1  0  0  0  0
 57 20  1  0  0  0  0
 62 32  1  0  0  0  0
 63 32  1  0  0  0  0
 64 33  1  0  0  0  0
 68 38  1  0  0  0  0
 70 39  1  0  0  0  0
 72 43  1  0  0  0  0
 73 44  1  0  0  0  0
 74 45  1  0  0  0  0
M  END
$$$$
