O=P1(O)OC2=C(C3=CC(C4=CC(C=CC=C5)=C5C=C4)=CC=C3)C=C6C(C=CC=C6)=C2C7=C(O1)C(C8=CC=CC(C9=CC=C(C=CC=C%10)C%10=C9)=C8)=CC%11=C7C=CC=C%11
 OpenBabel09032010373D

 90100  0  0  0  0  0  0  0  0999 V2000
    0.1613    0.9281   -0.5631 O   0  0  0  0  0  0  0  0  0  0  0  0
   -0.3246   -0.3624   -1.1436 P   0  0  0  0  0  0  0  0  0  0  0  0
   -1.2885   -0.1661   -2.4162 O   0  0  0  0  0  0  0  0  0  0  0  0
   -1.2150   -1.2420   -0.1337 O   0  0  0  0  0  0  0  0  0  0  0  0
   -1.5272   -2.5508   -0.4295 C   0  0  0  0  0  0  0  0  0  0  0  0
   -2.8931   -2.8475   -0.6363 C   0  0  0  0  0  0  0  0  0  0  0  0
   -3.9517   -1.8111   -0.6186 C   0  0  0  0  0  0  0  0  0  0  0  0
   -4.0097   -0.8436    0.3992 C   0  0  0  0  0  0  0  0  0  0  0  0
   -4.9399    0.2118    0.3871 C   0  0  0  0  0  0  0  0  0  0  0  0
   -4.8628    1.2744    1.4004 C   0  0  0  0  0  0  0  0  0  0  0  0
   -3.6526    1.9620    1.6048 C   0  0  0  0  0  0  0  0  0  0  0  0
   -3.5286    2.9688    2.5729 C   0  0  0  0  0  0  0  0  0  0  0  0
   -2.3105    3.6366    2.7702 C   0  0  0  0  0  0  0  0  0  0  0  0
   -2.1950    4.6304    3.7406 C   0  0  0  0  0  0  0  0  0  0  0  0
   -3.2964    4.9700    4.5208 C   0  0  0  0  0  0  0  0  0  0  0  0
   -4.5164    4.3165    4.3324 C   0  0  0  0  0  0  0  0  0  0  0  0
   -4.6481    3.3110    3.3610 C   0  0  0  0  0  0  0  0  0  0  0  0
   -5.8616    2.6362    3.1531 C   0  0  0  0  0  0  0  0  0  0  0  0
   -5.9666    1.6316    2.1845 C   0  0  0  0  0  0  0  0  0  0  0  0
   -5.8874    0.2452   -0.6423 C   0  0  0  0  0  0  0  0  0  0  0  0
   -5.8818   -0.7263   -1.6431 C   0  0  0  0  0  0  0  0  0  0  0  0
   -4.9158   -1.7355   -1.6370 C   0  0  0  0  0  0  0  0  0  0  0  0
   -3.2260   -4.1818   -0.8842 C   0  0  0  0  0  0  0  0  0  0  0  0
   -2.2521   -5.1803   -0.9794 C   0  0  0  0  0  0  0  0  0  0  0  0
   -0.8823   -4.8631   -0.7843 C   0  0  0  0  0  0  0  0  0  0  0  0
    0.0400   -5.9186   -1.0069 C   0  0  0  0  0  0  0  0  0  0  0  0
   -0.3628   -7.2174   -1.3295 C   0  0  0  0  0  0  0  0  0  0  0  0
   -1.7106   -7.5073   -1.4598 C   0  0  0  0  0  0  0  0  0  0  0  0
   -2.6479   -6.4924   -1.2922 C   0  0  0  0  0  0  0  0  0  0  0  0
   -0.4909   -3.5206   -0.4327 C   0  0  0  0  0  0  0  0  0  0  0  0
    0.8716   -3.1510   -0.0989 C   0  0  0  0  0  0  0  0  0  0  0  0
    1.5195   -2.1020   -0.7988 C   0  0  0  0  0  0  0  0  0  0  0  0
    0.8021   -1.3640   -1.7151 O   0  0  0  0  0  0  0  0  0  0  0  0
    2.8914   -1.8155   -0.6775 C   0  0  0  0  0  0  0  0  0  0  0  0
    3.5585   -0.7979   -1.5008 C   0  0  0  0  0  0  0  0  0  0  0  0
    4.3935   -1.1713   -2.5630 C   0  0  0  0  0  0  0  0  0  0  0  0
    5.0108   -0.2042   -3.3555 C   0  0  0  0  0  0  0  0  0  0  0  0
    4.7954    1.1507   -3.0993 C   0  0  0  0  0  0  0  0  0  0  0  0
    3.9689    1.5621   -2.0433 C   0  0  0  0  0  0  0  0  0  0  0  0
    3.7104    2.9878   -1.7839 C   0  0  0  0  0  0  0  0  0  0  0  0
    2.3975    3.4663   -1.6616 C   0  0  0  0  0  0  0  0  0  0  0  0
    2.1389    4.8143   -1.4080 C   0  0  0  0  0  0  0  0  0  0  0  0
    3.1926    5.7288   -1.2730 C   0  0  0  0  0  0  0  0  0  0  0  0
    2.9541    7.0892   -1.0198 C   0  0  0  0  0  0  0  0  0  0  0  0
    4.0151    7.9863   -0.8867 C   0  0  0  0  0  0  0  0  0  0  0  0
    5.3263    7.5347   -1.0040 C   0  0  0  0  0  0  0  0  0  0  0  0
    5.5793    6.1855   -1.2555 C   0  0  0  0  0  0  0  0  0  0  0  0
    4.5233    5.2703   -1.3940 C   0  0  0  0  0  0  0  0  0  0  0  0
    4.7630    3.9078   -1.6476 C   0  0  0  0  0  0  0  0  0  0  0  0
    3.3729    0.5695   -1.2458 C   0  0  0  0  0  0  0  0  0  0  0  0
    3.6353   -2.5496    0.2473 C   0  0  0  0  0  0  0  0  0  0  0  0
    3.0389   -3.5232    1.0525 C   0  0  0  0  0  0  0  0  0  0  0  0
    1.6585   -3.8234    0.9046 C   0  0  0  0  0  0  0  0  0  0  0  0
    1.1202   -4.7649    1.8186 C   0  0  0  0  0  0  0  0  0  0  0  0
    1.9029   -5.4158    2.7758 C   0  0  0  0  0  0  0  0  0  0  0  0
    3.2562   -5.1342    2.8660 C   0  0  0  0  0  0  0  0  0  0  0  0
    3.8184   -4.1888    2.0133 C   0  0  0  0  0  0  0  0  0  0  0  0
   -1.6504   -1.0067   -2.7438 H   0  0  0  0  0  0  0  0  0  0  0  0
   -3.2950   -0.8915    1.2214 H   0  0  0  0  0  0  0  0  0  0  0  0
   -2.7877    1.7115    0.9902 H   0  0  0  0  0  0  0  0  0  0  0  0
   -1.4396    3.3849    2.1682 H   0  0  0  0  0  0  0  0  0  0  0  0
   -1.2436    5.1353    3.8834 H   0  0  0  0  0  0  0  0  0  0  0  0
   -3.2062    5.7444    5.2768 H   0  0  0  0  0  0  0  0  0  0  0  0
   -5.3652    4.5976    4.9516 H   0  0  0  0  0  0  0  0  0  0  0  0
   -6.7360    2.8837    3.7504 H   0  0  0  0  0  0  0  0  0  0  0  0
   -6.9169    1.1177    2.0584 H   0  0  0  0  0  0  0  0  0  0  0  0
   -6.6183    1.0498   -0.6882 H   0  0  0  0  0  0  0  0  0  0  0  0
   -6.6150   -0.6804   -2.4443 H   0  0  0  0  0  0  0  0  0  0  0  0
   -4.9151   -2.4550   -2.4530 H   0  0  0  0  0  0  0  0  0  0  0  0
   -4.2742   -4.4479   -1.0216 H   0  0  0  0  0  0  0  0  0  0  0  0
    1.1120   -5.7397   -0.9423 H   0  0  0  0  0  0  0  0  0  0  0  0
    0.3830   -7.9935   -1.4808 H   0  0  0  0  0  0  0  0  0  0  0  0
   -2.0331   -8.5149   -1.7081 H   0  0  0  0  0  0  0  0  0  0  0  0
   -3.7011   -6.7354   -1.4232 H   0  0  0  0  0  0  0  0  0  0  0  0
    4.5569   -2.2233   -2.7860 H   0  0  0  0  0  0  0  0  0  0  0  0
    5.6483   -0.5048   -4.1825 H   0  0  0  0  0  0  0  0  0  0  0  0
    5.2642    1.8900   -3.7455 H   0  0  0  0  0  0  0  0  0  0  0  0
    1.5532    2.7872   -1.7674 H   0  0  0  0  0  0  0  0  0  0  0  0
    1.1063    5.1437   -1.3203 H   0  0  0  0  0  0  0  0  0  0  0  0
    1.9362    7.4602   -0.9242 H   0  0  0  0  0  0  0  0  0  0  0  0
    3.8166    9.0368   -0.6911 H   0  0  0  0  0  0  0  0  0  0  0  0
    6.1538    8.2314   -0.9000 H   0  0  0  0  0  0  0  0  0  0  0  0
    6.6103    5.8505   -1.3429 H   0  0  0  0  0  0  0  0  0  0  0  0
    5.7892    3.5535   -1.7257 H   0  0  0  0  0  0  0  0  0  0  0  0
    2.7458    0.8726   -0.4072 H   0  0  0  0  0  0  0  0  0  0  0  0
    4.6971   -2.3299    0.3583 H   0  0  0  0  0  0  0  0  0  0  0  0
    0.0571   -4.9997    1.8078 H   0  0  0  0  0  0  0  0  0  0  0  0
    1.4463   -6.1350    3.4508 H   0  0  0  0  0  0  0  0  0  0  0  0
    3.8717   -5.6339    3.6087 H   0  0  0  0  0  0  0  0  0  0  0  0
    4.8784   -3.9628    2.1161 H   0  0  0  0  0  0  0  0  0  0  0  0
  2  1  2  0  0  0  0
  2  4  1  0  0  0  0
  3  2  1  0  0  0  0
  5  4  1  0  0  0  0
  6  7  1  0  0  0  0
  6  5  1  0  0  0  0
  7  8  2  0  0  0  0
  8 59  1  0  0  0  0
  9  8  1  0  0  0  0
  9 10  1  0  0  0  0
 10 11  2  0  0  0  0
 10 19  1  0  0  0  0
 11 12  1  0  0  0  0
 12 13  2  0  0  0  0
 12 17  1  0  0  0  0
 13 14  1  0  0  0  0
 14 62  1  0  0  0  0
 14 15  2  0  0  0  0
 15 63  1  0  0  0  0
 16 15  1  0  0  0  0
 16 64  1  0  0  0  0
 17 16  2  0  0  0  0
 18 17  1  0  0  0  0
 18 65  1  0  0  0  0
 19 18  2  0  0  0  0
 20  9  2  0  0  0  0
 21 22  2  0  0  0  0
 21 20  1  0  0  0  0
 22  7  1  0  0  0  0
 23  6  2  0  0  0  0
 24 23  1  0  0  0  0
 24 25  1  0  0  0  0
 25 30  1  0  0  0  0
 26 71  1  0  0  0  0
 26 25  2  0  0  0  0
 27 26  1  0  0  0  0
 28 27  2  0  0  0  0
 28 29  1  0  0  0  0
 29 24  2  0  0  0  0
 30  5  2  0  0  0  0
 30 31  1  0  0  0  0
 31 53  2  0  0  0  0
 32 34  2  0  0  0  0
 32 31  1  0  0  0  0
 33  2  1  0  0  0  0
 33 32  1  0  0  0  0
 34 51  1  0  0  0  0
 35 50  1  0  0  0  0
 35 34  1  0  0  0  0
 36 35  2  0  0  0  0
 37 38  2  0  0  0  0
 37 36  1  0  0  0  0
 38 39  1  0  0  0  0
 39 40  1  0  0  0  0
 39 50  2  0  0  0  0
 40 41  2  0  0  0  0
 40 49  1  0  0  0  0
 41 42  1  0  0  0  0
 42 79  1  0  0  0  0
 42 43  2  0  0  0  0
 43 44  1  0  0  0  0
 44 80  1  0  0  0  0
 44 45  2  0  0  0  0
 45 81  1  0  0  0  0
 46 82  1  0  0  0  0
 46 45  1  0  0  0  0
 47 46  2  0  0  0  0
 48 43  1  0  0  0  0
 48 47  1  0  0  0  0
 49 48  2  0  0  0  0
 50 85  1  0  0  0  0
 51 86  1  0  0  0  0
 51 52  2  0  0  0  0
 52 57  1  0  0  0  0
 53 52  1  0  0  0  0
 53 54  1  0  0  0  0
 54 55  2  0  0  0  0
 55 56  1  0  0  0  0
 55 88  1  0  0  0  0
 56 89  1  0  0  0  0
 57 90  1  0  0  0  0
 57 56  2  0  0  0  0
 58  3  1  0  0  0  0
 60 11  1  0  0  0  0
 61 13  1  0  0  0  0
 66 19  1  0  0  0  0
 67 20  1  0  0  0  0
 68 21  1  0  0  0  0
 69 22  1  0  0  0  0
 70 23  1  0  0  0  0
 72 27  1  0  0  0  0
 73 28  1  0  0  0  0
 74 29  1  0  0  0  0
 75 36  1  0  0  0  0
 76 37  1  0  0  0  0
 77 38  1  0  0  0  0
 78 41  1  0  0  0  0
 83 47  1  0  0  0  0
 84 49  1  0  0  0  0
 87 54  1  0  0  0  0
M  END
$$$$
