O=P1(O)OC2=C(C3=C(F)C=C(OC)C=C3F)C=C4C(C=CC=C4)=[C@]2[C@]5=C(O1)C(C6=C(F)C=C(OC)C=C6F)=CC7=C5C=CC=C7
 OpenBabel09032010373D

 66 72  0  0  0  0  0  0  0  0999 V2000
    0.8416    2.5583    0.7126 O   0  0  0  0  0  0  0  0  0  0  0  0
    0.1278    1.5441   -0.1254 P   0  0  0  0  0  0  0  0  0  0  0  0
   -0.6402    2.2560   -1.3457 O   0  0  0  0  0  0  0  0  0  0  0  0
    1.0695    0.4713   -0.8670 O   0  0  0  0  0  0  0  0  0  0  0  0
    1.5113   -0.5948   -0.1142 C   0  0  0  0  0  0  0  0  0  0  0  0
    2.8764   -0.6157    0.2221 C   0  0  0  0  0  0  0  0  0  0  0  0
    3.7959    0.4616   -0.1742 C   0  0  0  0  0  0  0  0  0  0  0  0
    4.1035    0.7149   -1.5147 C   0  0  0  0  0  0  0  0  0  0  0  0
    3.5824   -0.0538   -2.4832 F   0  0  0  0  0  0  0  0  0  0  0  0
    4.9561    1.7534   -1.8887 C   0  0  0  0  0  0  0  0  0  0  0  0
    5.5307    2.5772   -0.9212 C   0  0  0  0  0  0  0  0  0  0  0  0
    6.3415    3.5613   -1.4129 O   0  0  0  0  0  0  0  0  0  0  0  0
    6.9175    4.4548   -0.4665 C   0  0  0  0  0  0  0  0  0  0  0  0
    5.2490    2.3413    0.4213 C   0  0  0  0  0  0  0  0  0  0  0  0
    4.3952    1.2944    0.7785 C   0  0  0  0  0  0  0  0  0  0  0  0
    4.1546    1.0990    2.0846 F   0  0  0  0  0  0  0  0  0  0  0  0
    3.3411   -1.6956    0.9751 C   0  0  0  0  0  0  0  0  0  0  0  0
    2.4802   -2.7075    1.4122 C   0  0  0  0  0  0  0  0  0  0  0  0
    1.1011   -2.6702    1.0717 C   0  0  0  0  0  0  0  0  0  0  0  0
    0.2876   -3.6819    1.6437 C   0  0  0  0  0  0  0  0  0  0  0  0
    0.8080   -4.7041    2.4420 C   0  0  0  0  0  0  0  0  0  0  0  0
    2.1652   -4.7416    2.7161 C   0  0  0  0  0  0  0  0  0  0  0  0
    2.9937   -3.7445    2.2100 C   0  0  0  0  0  0  0  0  0  0  0  0
    0.5890   -1.6123    0.2355 C   0  0  0  0  0  0  0  0  0  0  0  0
   -0.7764   -1.5500   -0.2492 C   0  0  0  0  0  0  0  0  0  0  0  0
   -1.5679   -0.3934   -0.0207 C   0  0  0  0  0  0  0  0  0  0  0  0
   -1.0180    0.6970    0.6215 O   0  0  0  0  0  0  0  0  0  0  0  0
   -2.9309   -0.2964   -0.3576 C   0  0  0  0  0  0  0  0  0  0  0  0
   -3.7238    0.9080   -0.0688 C   0  0  0  0  0  0  0  0  0  0  0  0
   -4.2178    1.7204   -1.0942 C   0  0  0  0  0  0  0  0  0  0  0  0
   -3.9894    1.4001   -2.3775 F   0  0  0  0  0  0  0  0  0  0  0  0
   -4.9556    2.8733   -0.8266 C   0  0  0  0  0  0  0  0  0  0  0  0
   -5.2236    3.2493    0.4893 C   0  0  0  0  0  0  0  0  0  0  0  0
   -5.9526    4.3977    0.6211 O   0  0  0  0  0  0  0  0  0  0  0  0
   -6.2245    4.8412    1.9458 C   0  0  0  0  0  0  0  0  0  0  0  0
   -4.7505    2.4538    1.5291 C   0  0  0  0  0  0  0  0  0  0  0  0
   -4.0142    1.3008    1.2431 C   0  0  0  0  0  0  0  0  0  0  0  0
   -3.5921    0.5545    2.2761 F   0  0  0  0  0  0  0  0  0  0  0  0
   -3.5245   -1.3880   -0.9940 C   0  0  0  0  0  0  0  0  0  0  0  0
   -2.7913   -2.5336   -1.3162 C   0  0  0  0  0  0  0  0  0  0  0  0
   -1.4156   -2.6226   -0.9722 C   0  0  0  0  0  0  0  0  0  0  0  0
   -0.7320   -3.7793   -1.4288 C   0  0  0  0  0  0  0  0  0  0  0  0
   -1.3747   -4.8124   -2.1164 C   0  0  0  0  0  0  0  0  0  0  0  0
   -2.7286   -4.7186   -2.3929 C   0  0  0  0  0  0  0  0  0  0  0  0
   -3.4295   -3.5818   -2.0015 C   0  0  0  0  0  0  0  0  0  0  0  0
   -0.1561    3.0522   -1.6288 H   0  0  0  0  0  0  0  0  0  0  0  0
    5.1655    1.9137   -2.9424 H   0  0  0  0  0  0  0  0  0  0  0  0
    7.5872    3.9243    0.2183 H   0  0  0  0  0  0  0  0  0  0  0  0
    7.5158    5.1861   -1.0185 H   0  0  0  0  0  0  0  0  0  0  0  0
    6.1434    5.0021    0.0815 H   0  0  0  0  0  0  0  0  0  0  0  0
    5.6638    2.9440    1.2207 H   0  0  0  0  0  0  0  0  0  0  0  0
    4.3951   -1.7321    1.2498 H   0  0  0  0  0  0  0  0  0  0  0  0
   -0.7894   -3.6807    1.4841 H   0  0  0  0  0  0  0  0  0  0  0  0
    0.1450   -5.4617    2.8513 H   0  0  0  0  0  0  0  0  0  0  0  0
    2.5771   -5.5319    3.3378 H   0  0  0  0  0  0  0  0  0  0  0  0
    4.0528   -3.7756    2.4596 H   0  0  0  0  0  0  0  0  0  0  0  0
   -5.3156    3.4758   -1.6554 H   0  0  0  0  0  0  0  0  0  0  0  0
   -6.7965    5.7714    1.8761 H   0  0  0  0  0  0  0  0  0  0  0  0
   -5.2978    5.0586    2.4871 H   0  0  0  0  0  0  0  0  0  0  0  0
   -6.8369    4.1123    2.4867 H   0  0  0  0  0  0  0  0  0  0  0  0
   -4.9284    2.6882    2.5721 H   0  0  0  0  0  0  0  0  0  0  0  0
   -4.5781   -1.3300   -1.2662 H   0  0  0  0  0  0  0  0  0  0  0  0
    0.3386   -3.8890   -1.2644 H   0  0  0  0  0  0  0  0  0  0  0  0
   -0.8085   -5.6824   -2.4382 H   0  0  0  0  0  0  0  0  0  0  0  0
   -3.2356   -5.5168   -2.9280 H   0  0  0  0  0  0  0  0  0  0  0  0
   -4.4867   -3.5139   -2.2520 H   0  0  0  0  0  0  0  0  0  0  0  0
  2 27  1  0  0  0  0
  2  1  2  0  0  0  0
  3  2  1  0  0  0  0
  4  2  1  0  0  0  0
  4  5  1  0  0  0  0
  5  6  2  0  0  0  0
  5 24  1  0  0  0  0
  6 17  1  0  0  0  0
  7  6  1  0  0  0  0
  7 15  2  0  0  0  0
  8  7  1  0  0  0  0
  9  8  1  0  0  0  0
 10  8  2  0  0  0  0
 10 11  1  0  0  0  0
 11 14  2  0  0  0  0
 12 11  1  0  0  0  0
 12 13  1  0  0  0  0
 13 50  1  0  0  0  0
 13 48  1  0  0  0  0
 14 15  1  0  0  0  0
 14 51  1  0  0  0  0
 15 16  1  0  0  0  0
 17 52  1  0  0  0  0
 17 18  2  0  0  0  0
 18 23  1  0  0  0  0
 19 18  1  0  0  0  0
 19 20  1  0  0  0  0
 20 21  2  0  0  0  0
 21 22  1  0  0  0  0
 21 54  1  0  0  0  0
 22 55  1  0  0  0  0
 23 56  1  0  0  0  0
 23 22  2  0  0  0  0
 24 19  2  0  0  0  0
 25 26  2  0  0  0  0
 25 24  1  0  0  0  0
 26 27  1  0  0  0  0
 28 29  1  0  0  0  0
 28 26  1  0  0  0  0
 29 37  2  0  0  0  0
 30 32  2  0  0  0  0
 30 29  1  0  0  0  0
 31 30  1  0  0  0  0
 32 33  1  0  0  0  0
 33 34  1  0  0  0  0
 33 36  2  0  0  0  0
 34 35  1  0  0  0  0
 35 60  1  0  0  0  0
 35 59  1  0  0  0  0
 36 61  1  0  0  0  0
 37 36  1  0  0  0  0
 37 38  1  0  0  0  0
 39 28  2  0  0  0  0
 40 39  1  0  0  0  0
 40 41  1  0  0  0  0
 41 25  1  0  0  0  0
 42 63  1  0  0  0  0
 42 41  2  0  0  0  0
 43 42  1  0  0  0  0
 44 43  2  0  0  0  0
 44 45  1  0  0  0  0
 45 40  2  0  0  0  0
 46  3  1  0  0  0  0
 47 10  1  0  0  0  0
 49 13  1  0  0  0  0
 53 20  1  0  0  0  0
 57 32  1  0  0  0  0
 58 35  1  0  0  0  0
 62 39  1  0  0  0  0
 64 43  1  0  0  0  0
 65 44  1  0  0  0  0
 66 45  1  0  0  0  0
M  END
$$$$
