O=P1(O)OC2=C(CC)C=C3C(CCCC3)=C2C4=C(O1)C(CC)=CC5=C4CCCC5
 OpenBabel09032010373D

 58 62  0  0  0  0  0  0  0  0999 V2000
   -0.1150    4.3894   -0.4075 O   0  0  0  0  0  0  0  0  0  0  0  0
    0.4705    3.2142    0.3140 P   0  0  0  0  0  0  0  0  0  0  0  0
    1.5381    3.7347    1.4021 O   0  0  0  0  0  0  0  0  0  0  0  0
    1.3137    2.1952   -0.6069 O   0  0  0  0  0  0  0  0  0  0  0  0
    1.7030    0.9880   -0.0778 C   0  0  0  0  0  0  0  0  0  0  0  0
    3.0823    0.7509    0.0180 C   0  0  0  0  0  0  0  0  0  0  0  0
    4.1004    1.7502   -0.4750 C   0  0  0  0  0  0  0  0  0  0  0  0
    4.3418    1.6220   -1.9717 C   0  0  0  0  0  0  0  0  0  0  0  0
    3.5113   -0.4549    0.5725 C   0  0  0  0  0  0  0  0  0  0  0  0
    2.5933   -1.3857    1.0756 C   0  0  0  0  0  0  0  0  0  0  0  0
    1.2053   -1.1273    0.9782 C   0  0  0  0  0  0  0  0  0  0  0  0
    0.2273   -2.0544    1.6898 C   0  0  0  0  0  0  0  0  0  0  0  0
    0.8767   -2.9464    2.7470 C   0  0  0  0  0  0  0  0  0  0  0  0
    2.0943   -3.6368    2.1559 C   0  0  0  0  0  0  0  0  0  0  0  0
    3.1476   -2.6001    1.7854 C   0  0  0  0  0  0  0  0  0  0  0  0
    0.7264    0.0382    0.3000 C   0  0  0  0  0  0  0  0  0  0  0  0
   -0.6648    0.2708    0.0253 C   0  0  0  0  0  0  0  0  0  0  0  0
   -1.3156    1.4076    0.5564 C   0  0  0  0  0  0  0  0  0  0  0  0
   -0.5673    2.3598    1.2044 O   0  0  0  0  0  0  0  0  0  0  0  0
   -2.7015    1.6034    0.4844 C   0  0  0  0  0  0  0  0  0  0  0  0
   -3.3854    2.7906    1.1182 C   0  0  0  0  0  0  0  0  0  0  0  0
   -3.7436    3.8613    0.0981 C   0  0  0  0  0  0  0  0  0  0  0  0
   -3.4633    0.6707   -0.2217 C   0  0  0  0  0  0  0  0  0  0  0  0
   -2.8608   -0.4105   -0.8782 C   0  0  0  0  0  0  0  0  0  0  0  0
   -1.4611   -0.5942   -0.7892 C   0  0  0  0  0  0  0  0  0  0  0  0
   -0.7958   -1.6623   -1.6481 C   0  0  0  0  0  0  0  0  0  0  0  0
   -1.6684   -2.1632   -2.7981 C   0  0  0  0  0  0  0  0  0  0  0  0
   -3.0455   -2.5327   -2.2725 C   0  0  0  0  0  0  0  0  0  0  0  0
   -3.7441   -1.2906   -1.7331 C   0  0  0  0  0  0  0  0  0  0  0  0
    1.3879    4.6830    1.5681 H   0  0  0  0  0  0  0  0  0  0  0  0
    5.0481    1.6079    0.0590 H   0  0  0  0  0  0  0  0  0  0  0  0
    3.7769    2.7692   -0.2326 H   0  0  0  0  0  0  0  0  0  0  0  0
    4.7046    0.6213   -2.2299 H   0  0  0  0  0  0  0  0  0  0  0  0
    3.4251    1.8040   -2.5424 H   0  0  0  0  0  0  0  0  0  0  0  0
    5.0924    2.3493   -2.2970 H   0  0  0  0  0  0  0  0  0  0  0  0
    4.5781   -0.6575    0.6564 H   0  0  0  0  0  0  0  0  0  0  0  0
   -0.5503   -1.4624    2.1869 H   0  0  0  0  0  0  0  0  0  0  0  0
   -0.2617   -2.7052    0.9630 H   0  0  0  0  0  0  0  0  0  0  0  0
    1.1706   -2.3486    3.6190 H   0  0  0  0  0  0  0  0  0  0  0  0
    0.1517   -3.6905    3.0954 H   0  0  0  0  0  0  0  0  0  0  0  0
    2.5145   -4.3514    2.8723 H   0  0  0  0  0  0  0  0  0  0  0  0
    1.8008   -4.2084    1.2663 H   0  0  0  0  0  0  0  0  0  0  0  0
    3.9096   -3.0784    1.1583 H   0  0  0  0  0  0  0  0  0  0  0  0
    3.6431   -2.2560    2.7026 H   0  0  0  0  0  0  0  0  0  0  0  0
   -2.7587    3.2281    1.9034 H   0  0  0  0  0  0  0  0  0  0  0  0
   -4.2961    2.4480    1.6257 H   0  0  0  0  0  0  0  0  0  0  0  0
   -4.2204    4.7120    0.5954 H   0  0  0  0  0  0  0  0  0  0  0  0
   -4.4402    3.4786   -0.6554 H   0  0  0  0  0  0  0  0  0  0  0  0
   -2.8549    4.2274   -0.4244 H   0  0  0  0  0  0  0  0  0  0  0  0
   -4.5405    0.8115   -0.3026 H   0  0  0  0  0  0  0  0  0  0  0  0
   -0.5336   -2.5237   -1.0315 H   0  0  0  0  0  0  0  0  0  0  0  0
    0.1302   -1.2660   -2.0814 H   0  0  0  0  0  0  0  0  0  0  0  0
   -1.1955   -3.0342   -3.2656 H   0  0  0  0  0  0  0  0  0  0  0  0
   -1.7571   -1.3899   -3.5714 H   0  0  0  0  0  0  0  0  0  0  0  0
   -2.9497   -3.2843   -1.4787 H   0  0  0  0  0  0  0  0  0  0  0  0
   -3.6509   -2.9814   -3.0679 H   0  0  0  0  0  0  0  0  0  0  0  0
   -4.6239   -1.6016   -1.1568 H   0  0  0  0  0  0  0  0  0  0  0  0
   -4.0995   -0.6887   -2.5795 H   0  0  0  0  0  0  0  0  0  0  0  0
  1  2  2  0  0  0  0
  2 19  1  0  0  0  0
  2  3  1  0  0  0  0
  3 30  1  0  0  0  0
  4  5  1  0  0  0  0
  4  2  1  0  0  0  0
  5  6  2  0  0  0  0
  5 16  1  0  0  0  0
  6  9  1  0  0  0  0
  7 32  1  0  0  0  0
  7  6  1  0  0  0  0
  7 31  1  0  0  0  0
  8  7  1  0  0  0  0
  9 36  1  0  0  0  0
  9 10  2  0  0  0  0
 10 15  1  0  0  0  0
 11 10  1  0  0  0  0
 11 12  1  0  0  0  0
 12 37  1  0  0  0  0
 12 13  1  0  0  0  0
 13 40  1  0  0  0  0
 13 39  1  0  0  0  0
 14 13  1  0  0  0  0
 14 41  1  0  0  0  0
 15 14  1  0  0  0  0
 15 44  1  0  0  0  0
 16 11  2  0  0  0  0
 17 16  1  0  0  0  0
 17 18  2  0  0  0  0
 18 19  1  0  0  0  0
 20 18  1  0  0  0  0
 20 21  1  0  0  0  0
 21 46  1  0  0  0  0
 21 45  1  0  0  0  0
 22 47  1  0  0  0  0
 22 21  1  0  0  0  0
 23 20  2  0  0  0  0
 24 25  2  0  0  0  0
 24 23  1  0  0  0  0
 25 17  1  0  0  0  0
 26 51  1  0  0  0  0
 26 25  1  0  0  0  0
 27 28  1  0  0  0  0
 27 26  1  0  0  0  0
 28 29  1  0  0  0  0
 28 55  1  0  0  0  0
 29 57  1  0  0  0  0
 29 24  1  0  0  0  0
 33  8  1  0  0  0  0
 34  8  1  0  0  0  0
 35  8  1  0  0  0  0
 38 12  1  0  0  0  0
 42 14  1  0  0  0  0
 43 15  1  0  0  0  0
 48 22  1  0  0  0  0
 49 22  1  0  0  0  0
 50 23  1  0  0  0  0
 52 26  1  0  0  0  0
 53 27  1  0  0  0  0
 54 27  1  0  0  0  0
 56 28  1  0  0  0  0
 58 29  1  0  0  0  0
M  END
$$$$
