O=P1(O)OC2=C(C3=CC(C4=CC=C(OC)C=C4)=CC(C5=CC=C(OC)C=C5)=C3)C=C6C(C=CC=C6)=C2C7=C(O1)C(C8=CC(C9=CC=C(OC)C=C9)=CC(C%10=CC=C(OC)C=C%10)=C8)=CC%11=C7C=CC=C%11
 OpenBabel09032010383D

114124  0  0  0  0  0  0  0  0999 V2000
   -0.1825    0.6480   -1.2755 O   0  0  0  0  0  0  0  0  0  0  0  0
    0.3271   -0.2293   -0.1758 P   0  0  0  0  0  0  0  0  0  0  0  0
    1.0600    0.6301    0.9721 O   0  0  0  0  0  0  0  0  0  0  0  0
   -0.7764   -1.0828    0.6314 O   0  0  0  0  0  0  0  0  0  0  0  0
   -1.2539   -2.2279    0.0276 C   0  0  0  0  0  0  0  0  0  0  0  0
   -2.5909   -2.2149   -0.4129 C   0  0  0  0  0  0  0  0  0  0  0  0
   -3.4945   -1.0577   -0.2319 C   0  0  0  0  0  0  0  0  0  0  0  0
   -4.2173   -0.5295   -1.3167 C   0  0  0  0  0  0  0  0  0  0  0  0
   -5.1244    0.5324   -1.1624 C   0  0  0  0  0  0  0  0  0  0  0  0
   -5.9031    1.0367   -2.3063 C   0  0  0  0  0  0  0  0  0  0  0  0
   -5.2735    1.4618   -3.4865 C   0  0  0  0  0  0  0  0  0  0  0  0
   -6.0162    1.9334   -4.5787 C   0  0  0  0  0  0  0  0  0  0  0  0
   -7.4076    1.9874   -4.5115 C   0  0  0  0  0  0  0  0  0  0  0  0
   -8.2488    2.4198   -5.4995 O   0  0  0  0  0  0  0  0  0  0  0  0
   -7.6435    2.8835   -6.6999 C   0  0  0  0  0  0  0  0  0  0  0  0
   -8.0456    1.5678   -3.3441 C   0  0  0  0  0  0  0  0  0  0  0  0
   -7.3042    1.0994   -2.2542 C   0  0  0  0  0  0  0  0  0  0  0  0
   -5.2825    1.0852    0.1188 C   0  0  0  0  0  0  0  0  0  0  0  0
   -4.5731    0.6004    1.2302 C   0  0  0  0  0  0  0  0  0  0  0  0
   -4.7560    1.1973    2.5648 C   0  0  0  0  0  0  0  0  0  0  0  0
   -5.0609    0.4027    3.6796 C   0  0  0  0  0  0  0  0  0  0  0  0
   -5.2372    0.9746    4.9439 C   0  0  0  0  0  0  0  0  0  0  0  0
   -5.1148    2.3523    5.1273 C   0  0  0  0  0  0  0  0  0  0  0  0
   -5.3131    2.7793    6.4108 O   0  0  0  0  0  0  0  0  0  0  0  0
   -5.2444    4.1810    6.6408 C   0  0  0  0  0  0  0  0  0  0  0  0
   -4.8088    3.1560    4.0314 C   0  0  0  0  0  0  0  0  0  0  0  0
   -4.6319    2.5822    2.7646 C   0  0  0  0  0  0  0  0  0  0  0  0
   -3.6915   -0.4762    1.0324 C   0  0  0  0  0  0  0  0  0  0  0  0
   -3.0684   -3.3730   -1.0365 C   0  0  0  0  0  0  0  0  0  0  0  0
   -2.2526   -4.4885   -1.2539 C   0  0  0  0  0  0  0  0  0  0  0  0
   -0.9100   -4.4888   -0.7961 C   0  0  0  0  0  0  0  0  0  0  0  0
   -0.1282   -5.6211   -1.1426 C   0  0  0  0  0  0  0  0  0  0  0  0
   -0.6535   -6.7138   -1.8371 C   0  0  0  0  0  0  0  0  0  0  0  0
   -1.9823   -6.7058   -2.2279 C   0  0  0  0  0  0  0  0  0  0  0  0
   -2.7741   -5.5970   -1.9430 C   0  0  0  0  0  0  0  0  0  0  0  0
   -0.3946   -3.3572   -0.0702 C   0  0  0  0  0  0  0  0  0  0  0  0
    0.9139   -3.3347    0.5529 C   0  0  0  0  0  0  0  0  0  0  0  0
    1.8173   -2.2881    0.2590 C   0  0  0  0  0  0  0  0  0  0  0  0
    1.4448   -1.2963   -0.6226 O   0  0  0  0  0  0  0  0  0  0  0  0
    3.1298   -2.2151    0.7609 C   0  0  0  0  0  0  0  0  0  0  0  0
    3.9971   -1.0732    0.4448 C   0  0  0  0  0  0  0  0  0  0  0  0
    4.2262   -0.0790    1.4079 C   0  0  0  0  0  0  0  0  0  0  0  0
    4.9137    1.1054    1.1003 C   0  0  0  0  0  0  0  0  0  0  0  0
    5.0581    2.1759    2.1025 C   0  0  0  0  0  0  0  0  0  0  0  0
    6.2850    2.8209    2.3138 C   0  0  0  0  0  0  0  0  0  0  0  0
    6.4030    3.8472    3.2565 C   0  0  0  0  0  0  0  0  0  0  0  0
    5.3012    4.2545    4.0092 C   0  0  0  0  0  0  0  0  0  0  0  0
    5.5488    5.2686    4.8890 O   0  0  0  0  0  0  0  0  0  0  0  0
    4.4511    5.7323    5.6647 C   0  0  0  0  0  0  0  0  0  0  0  0
    4.0769    3.6220    3.8169 C   0  0  0  0  0  0  0  0  0  0  0  0
    3.9593    2.5945    2.8739 C   0  0  0  0  0  0  0  0  0  0  0  0
    5.4071    1.2569   -0.2068 C   0  0  0  0  0  0  0  0  0  0  0  0
    5.2185    0.2696   -1.1882 C   0  0  0  0  0  0  0  0  0  0  0  0
    5.6855    0.4709   -2.5633 C   0  0  0  0  0  0  0  0  0  0  0  0
    5.1083    1.4597   -3.3742 C   0  0  0  0  0  0  0  0  0  0  0  0
    5.5178    1.6365   -4.7006 C   0  0  0  0  0  0  0  0  0  0  0  0
    6.5163    0.8263   -5.2374 C   0  0  0  0  0  0  0  0  0  0  0  0
    6.9967    0.8849   -6.5152 O   0  0  0  0  0  0  0  0  0  0  0  0
    6.4192    1.8582   -7.3759 C   0  0  0  0  0  0  0  0  0  0  0  0
    7.1053   -0.1531   -4.4354 C   0  0  0  0  0  0  0  0  0  0  0  0
    6.6930   -0.3332   -3.1117 C   0  0  0  0  0  0  0  0  0  0  0  0
    4.5155   -0.8927   -0.8434 C   0  0  0  0  0  0  0  0  0  0  0  0
    3.5667   -3.2294    1.6100 C   0  0  0  0  0  0  0  0  0  0  0  0
    2.7166   -4.2743    1.9849 C   0  0  0  0  0  0  0  0  0  0  0  0
    1.3842   -4.3291    1.4889 C   0  0  0  0  0  0  0  0  0  0  0  0
    0.5661   -5.3640    2.0104 C   0  0  0  0  0  0  0  0  0  0  0  0
    1.0452   -6.3253    2.9048 C   0  0  0  0  0  0  0  0  0  0  0  0
    2.3625   -6.2748    3.3299 C   0  0  0  0  0  0  0  0  0  0  0  0
    3.1895   -5.2503    2.8785 C   0  0  0  0  0  0  0  0  0  0  0  0
    1.6086    1.3251    0.5637 H   0  0  0  0  0  0  0  0  0  0  0  0
   -4.0809   -0.9646   -2.3061 H   0  0  0  0  0  0  0  0  0  0  0  0
   -4.1872    1.4388   -3.5619 H   0  0  0  0  0  0  0  0  0  0  0  0
   -5.4739    2.2501   -5.4633 H   0  0  0  0  0  0  0  0  0  0  0  0
   -7.0868    2.0816   -7.1960 H   0  0  0  0  0  0  0  0  0  0  0  0
   -7.0032    3.7513   -6.5099 H   0  0  0  0  0  0  0  0  0  0  0  0
   -8.4428    3.2014   -7.3762 H   0  0  0  0  0  0  0  0  0  0  0  0
   -9.1306    1.6035   -3.2807 H   0  0  0  0  0  0  0  0  0  0  0  0
   -7.8353    0.7705   -1.3632 H   0  0  0  0  0  0  0  0  0  0  0  0
   -5.9802    1.9108    0.2548 H   0  0  0  0  0  0  0  0  0  0  0  0
   -5.1768   -0.6737    3.5721 H   0  0  0  0  0  0  0  0  0  0  0  0
   -5.4757    0.3378    5.7922 H   0  0  0  0  0  0  0  0  0  0  0  0
   -6.0078    4.7142    6.0646 H   0  0  0  0  0  0  0  0  0  0  0  0
   -4.2430    4.5671    6.4236 H   0  0  0  0  0  0  0  0  0  0  0  0
   -5.4455    4.3560    7.7021 H   0  0  0  0  0  0  0  0  0  0  0  0
   -4.6950    4.2306    4.1233 H   0  0  0  0  0  0  0  0  0  0  0  0
   -4.3794    3.2315    1.9281 H   0  0  0  0  0  0  0  0  0  0  0  0
   -3.1403   -0.8689    1.8866 H   0  0  0  0  0  0  0  0  0  0  0  0
   -4.1042   -3.3987   -1.3755 H   0  0  0  0  0  0  0  0  0  0  0  0
    0.9281   -5.6626   -0.8826 H   0  0  0  0  0  0  0  0  0  0  0  0
   -0.0172   -7.5628   -2.0732 H   0  0  0  0  0  0  0  0  0  0  0  0
   -2.3996   -7.5504   -2.7689 H   0  0  0  0  0  0  0  0  0  0  0  0
   -3.8091   -5.5990   -2.2810 H   0  0  0  0  0  0  0  0  0  0  0  0
    3.8188   -0.2175    2.4096 H   0  0  0  0  0  0  0  0  0  0  0  0
    7.1686    2.5239    1.7530 H   0  0  0  0  0  0  0  0  0  0  0  0
    7.3647    4.3327    3.4041 H   0  0  0  0  0  0  0  0  0  0  0  0
    4.8129    6.5432    6.3042 H   0  0  0  0  0  0  0  0  0  0  0  0
    4.0664    4.9412    6.3168 H   0  0  0  0  0  0  0  0  0  0  0  0
    3.6600    6.1398    5.0266 H   0  0  0  0  0  0  0  0  0  0  0  0
    3.1926    3.9019    4.3792 H   0  0  0  0  0  0  0  0  0  0  0  0
    2.9847    2.1277    2.7433 H   0  0  0  0  0  0  0  0  0  0  0  0
    5.9295    2.1734   -0.4799 H   0  0  0  0  0  0  0  0  0  0  0  0
    4.3134    2.0910   -2.9813 H   0  0  0  0  0  0  0  0  0  0  0  0
    5.0299    2.4091   -5.2847 H   0  0  0  0  0  0  0  0  0  0  0  0
    6.5985    2.8718   -7.0024 H   0  0  0  0  0  0  0  0  0  0  0  0
    6.9068    1.7726   -8.3519 H   0  0  0  0  0  0  0  0  0  0  0  0
    5.3498    1.6727   -7.5210 H   0  0  0  0  0  0  0  0  0  0  0  0
    7.8898   -0.7850   -4.8465 H   0  0  0  0  0  0  0  0  0  0  0  0
    7.1658   -1.1071   -2.5110 H   0  0  0  0  0  0  0  0  0  0  0  0
    4.3241   -1.6480   -1.6056 H   0  0  0  0  0  0  0  0  0  0  0  0
    4.5809   -3.1842    2.0054 H   0  0  0  0  0  0  0  0  0  0  0  0
   -0.4839   -5.4319    1.7316 H   0  0  0  0  0  0  0  0  0  0  0  0
    0.3812   -7.1053    3.2690 H   0  0  0  0  0  0  0  0  0  0  0  0
    2.7424   -7.0179    4.0256 H   0  0  0  0  0  0  0  0  0  0  0  0
    4.2138   -5.2128    3.2455 H   0  0  0  0  0  0  0  0  0  0  0  0
  1  2  2  0  0  0  0
  2  4  1  0  0  0  0
  2  3  1  0  0  0  0
  5  4  1  0  0  0  0
  6  7  1  0  0  0  0
  6  5  2  0  0  0  0
  7 28  2  0  0  0  0
  8  9  2  0  0  0  0
  8  7  1  0  0  0  0
  9 18  1  0  0  0  0
 10 17  1  0  0  0  0
 10  9  1  0  0  0  0
 11 10  2  0  0  0  0
 12 13  2  0  0  0  0
 12 11  1  0  0  0  0
 13 16  1  0  0  0  0
 14 13  1  0  0  0  0
 15 75  1  0  0  0  0
 15 14  1  0  0  0  0
 16 77  1  0  0  0  0
 16 17  2  0  0  0  0
 17 78  1  0  0  0  0
 18 79  1  0  0  0  0
 18 19  2  0  0  0  0
 19 20  1  0  0  0  0
 20 27  2  0  0  0  0
 20 21  1  0  0  0  0
 21 22  2  0  0  0  0
 22 23  1  0  0  0  0
 22 81  1  0  0  0  0
 23 24  1  0  0  0  0
 24 25  1  0  0  0  0
 25 84  1  0  0  0  0
 26 85  1  0  0  0  0
 26 23  2  0  0  0  0
 27 26  1  0  0  0  0
 28 19  1  0  0  0  0
 28 87  1  0  0  0  0
 29  6  1  0  0  0  0
 30 29  2  0  0  0  0
 30 31  1  0  0  0  0
 31 36  2  0  0  0  0
 32 89  1  0  0  0  0
 32 31  1  0  0  0  0
 33 32  2  0  0  0  0
 34 35  2  0  0  0  0
 34 33  1  0  0  0  0
 35 30  1  0  0  0  0
 36  5  1  0  0  0  0
 36 37  1  0  0  0  0
 37 65  1  0  0  0  0
 38 37  2  0  0  0  0
 38 40  1  0  0  0  0
 39  2  1  0  0  0  0
 39 38  1  0  0  0  0
 40 63  2  0  0  0  0
 41 40  1  0  0  0  0
 41 42  2  0  0  0  0
 42 93  1  0  0  0  0
 43 42  1  0  0  0  0
 43 44  1  0  0  0  0
 44 45  2  0  0  0  0
 44 51  1  0  0  0  0
 45 46  1  0  0  0  0
 46 95  1  0  0  0  0
 46 47  2  0  0  0  0
 47 48  1  0  0  0  0
 48 49  1  0  0  0  0
 49 96  1  0  0  0  0
 49 97  1  0  0  0  0
 50 47  1  0  0  0  0
 50 99  1  0  0  0  0
 51 50  2  0  0  0  0
 52 43  2  0  0  0  0
 53 62  2  0  0  0  0
 53 52  1  0  0  0  0
 54 53  1  0  0  0  0
 55102  1  0  0  0  0
 55 54  2  0  0  0  0
 56 55  1  0  0  0  0
 57 56  2  0  0  0  0
 57 60  1  0  0  0  0
 58 57  1  0  0  0  0
 59104  1  0  0  0  0
 59 58  1  0  0  0  0
 60 61  2  0  0  0  0
 61 54  1  0  0  0  0
 61108  1  0  0  0  0
 62 41  1  0  0  0  0
 63 64  1  0  0  0  0
 63110  1  0  0  0  0
 64 69  1  0  0  0  0
 65 64  2  0  0  0  0
 65 66  1  0  0  0  0
 66 67  2  0  0  0  0
 67112  1  0  0  0  0
 67 68  1  0  0  0  0
 68113  1  0  0  0  0
 69114  1  0  0  0  0
 69 68  2  0  0  0  0
 70  3  1  0  0  0  0
 71  8  1  0  0  0  0
 72 11  1  0  0  0  0
 73 12  1  0  0  0  0
 74 15  1  0  0  0  0
 76 15  1  0  0  0  0
 80 21  1  0  0  0  0
 82 25  1  0  0  0  0
 83 25  1  0  0  0  0
 86 27  1  0  0  0  0
 88 29  1  0  0  0  0
 90 33  1  0  0  0  0
 91 34  1  0  0  0  0
 92 35  1  0  0  0  0
 94 45  1  0  0  0  0
 98 49  1  0  0  0  0
100 51  1  0  0  0  0
101 52  1  0  0  0  0
103 56  1  0  0  0  0
105 59  1  0  0  0  0
106 59  1  0  0  0  0
107 60  1  0  0  0  0
109 62  1  0  0  0  0
111 66  1  0  0  0  0
M  END
$$$$
