O=P1(O)OC2=C(C3=C(F)C=C(OC)C=C3F)C=C4C(C=CC=C4)=[C@]2[C@]5=C(O1)C(C6=C(F)C=C(OC)C=C6F)=CC7=C5C=CC=C7
 OpenBabel09032010373D

 66 72  0  0  0  0  0  0  0  0999 V2000
    0.8992    2.4771    0.9799 O   0  0  0  0  0  0  0  0  0  0  0  0
    0.1392    1.5184    0.1178 P   0  0  0  0  0  0  0  0  0  0  0  0
   -0.6926    2.3095   -1.0092 O   0  0  0  0  0  0  0  0  0  0  0  0
    1.0383    0.5014   -0.7454 O   0  0  0  0  0  0  0  0  0  0  0  0
    1.5242   -0.6086   -0.0897 C   0  0  0  0  0  0  0  0  0  0  0  0
    2.9060   -0.6436    0.1679 C   0  0  0  0  0  0  0  0  0  0  0  0
    3.7998    0.4620   -0.2087 C   0  0  0  0  0  0  0  0  0  0  0  0
    4.0302    0.8036   -1.5451 C   0  0  0  0  0  0  0  0  0  0  0  0
    3.4562    0.0967   -2.5307 F   0  0  0  0  0  0  0  0  0  0  0  0
    4.8586    1.8687   -1.8983 C   0  0  0  0  0  0  0  0  0  0  0  0
    5.4860    2.6309   -0.9133 C   0  0  0  0  0  0  0  0  0  0  0  0
    6.2659    3.6492   -1.3850 O   0  0  0  0  0  0  0  0  0  0  0  0
    6.8936    4.4822   -0.4165 C   0  0  0  0  0  0  0  0  0  0  0  0
    5.2815    2.3067    0.4247 C   0  0  0  0  0  0  0  0  0  0  0  0
    4.4511    1.2343    0.7607 C   0  0  0  0  0  0  0  0  0  0  0  0
    4.2857    0.9531    2.0629 F   0  0  0  0  0  0  0  0  0  0  0  0
    3.4141   -1.7671    0.8228 C   0  0  0  0  0  0  0  0  0  0  0  0
    2.5808   -2.8095    1.2412 C   0  0  0  0  0  0  0  0  0  0  0  0
    1.1847   -2.7578    0.9813 C   0  0  0  0  0  0  0  0  0  0  0  0
    0.4062   -3.8082    1.5317 C   0  0  0  0  0  0  0  0  0  0  0  0
    0.9721   -4.8767    2.2324 C   0  0  0  0  0  0  0  0  0  0  0  0
    2.3426   -4.9246    2.4273 C   0  0  0  0  0  0  0  0  0  0  0  0
    3.1399   -3.8927    1.9409 C   0  0  0  0  0  0  0  0  0  0  0  0
    0.6249   -1.6514    0.2444 C   0  0  0  0  0  0  0  0  0  0  0  0
   -0.7651   -1.5658   -0.1595 C   0  0  0  0  0  0  0  0  0  0  0  0
   -1.5457   -0.4310    0.1862 C   0  0  0  0  0  0  0  0  0  0  0  0
   -0.9653    0.6198    0.8664 O   0  0  0  0  0  0  0  0  0  0  0  0
   -2.9257   -0.3226   -0.0670 C   0  0  0  0  0  0  0  0  0  0  0  0
   -3.7058    0.8534    0.3449 C   0  0  0  0  0  0  0  0  0  0  0  0
   -4.2398    1.7420   -0.5953 C   0  0  0  0  0  0  0  0  0  0  0  0
   -4.0593    1.5205   -1.9071 F   0  0  0  0  0  0  0  0  0  0  0  0
   -4.9709    2.8722   -0.2193 C   0  0  0  0  0  0  0  0  0  0  0  0
   -5.1887    3.1392    1.1294 C   0  0  0  0  0  0  0  0  0  0  0  0
   -5.8821    4.2013    1.6381 O   0  0  0  0  0  0  0  0  0  0  0  0
   -6.4101    5.1359    0.7040 C   0  0  0  0  0  0  0  0  0  0  0  0
   -4.6726    2.2643    2.0849 C   0  0  0  0  0  0  0  0  0  0  0  0
   -3.9452    1.1409    1.6924 C   0  0  0  0  0  0  0  0  0  0  0  0
   -3.4822    0.3206    2.6484 F   0  0  0  0  0  0  0  0  0  0  0  0
   -3.5511   -1.3751   -0.7380 C   0  0  0  0  0  0  0  0  0  0  0  0
   -2.8335   -2.4925   -1.1740 C   0  0  0  0  0  0  0  0  0  0  0  0
   -1.4404   -2.5939   -0.9137 C   0  0  0  0  0  0  0  0  0  0  0  0
   -0.7798   -3.7142   -1.4812 C   0  0  0  0  0  0  0  0  0  0  0  0
   -1.4567   -4.7056   -2.1970 C   0  0  0  0  0  0  0  0  0  0  0  0
   -2.8243   -4.6036   -2.3906 C   0  0  0  0  0  0  0  0  0  0  0  0
   -3.5058   -3.4992   -1.8883 C   0  0  0  0  0  0  0  0  0  0  0  0
   -0.2187    3.1216   -1.2628 H   0  0  0  0  0  0  0  0  0  0  0  0
    5.0074    2.0983   -2.9495 H   0  0  0  0  0  0  0  0  0  0  0  0
    7.4583    5.2510   -0.9526 H   0  0  0  0  0  0  0  0  0  0  0  0
    7.6020    3.9117    0.1931 H   0  0  0  0  0  0  0  0  0  0  0  0
    6.1511    4.9886    0.2092 H   0  0  0  0  0  0  0  0  0  0  0  0
    5.7403    2.8582    1.2370 H   0  0  0  0  0  0  0  0  0  0  0  0
    4.4819   -1.8154    1.0353 H   0  0  0  0  0  0  0  0  0  0  0  0
   -0.6781   -3.8021    1.4331 H   0  0  0  0  0  0  0  0  0  0  0  0
    0.3343   -5.6623    2.6287 H   0  0  0  0  0  0  0  0  0  0  0  0
    2.7900   -5.7508    2.9731 H   0  0  0  0  0  0  0  0  0  0  0  0
    4.2113   -3.9342    2.1286 H   0  0  0  0  0  0  0  0  0  0  0  0
   -5.3476    3.5113   -1.0094 H   0  0  0  0  0  0  0  0  0  0  0  0
   -5.6106    5.6077    0.1233 H   0  0  0  0  0  0  0  0  0  0  0  0
   -7.1487    4.6627    0.0486 H   0  0  0  0  0  0  0  0  0  0  0  0
   -6.9204    5.9217    1.2692 H   0  0  0  0  0  0  0  0  0  0  0  0
   -4.8305    2.4484    3.1436 H   0  0  0  0  0  0  0  0  0  0  0  0
   -4.6188   -1.3078   -0.9446 H   0  0  0  0  0  0  0  0  0  0  0  0
    0.2988   -3.8270   -1.3842 H   0  0  0  0  0  0  0  0  0  0  0  0
   -0.9066   -5.5493   -2.6051 H   0  0  0  0  0  0  0  0  0  0  0  0
   -3.3580   -5.3696   -2.9465 H   0  0  0  0  0  0  0  0  0  0  0  0
   -4.5758   -3.4231   -2.0737 H   0  0  0  0  0  0  0  0  0  0  0  0
  2 27  1  0  0  0  0
  2  1  2  0  0  0  0
  3  2  1  0  0  0  0
  4  5  1  0  0  0  0
  4  2  1  0  0  0  0
  5  6  2  0  0  0  0
  5 24  1  0  0  0  0
  6 17  1  0  0  0  0
  7  6  1  0  0  0  0
  7 15  2  0  0  0  0
  8  7  1  0  0  0  0
  9  8  1  0  0  0  0
 10  8  2  0  0  0  0
 10 11  1  0  0  0  0
 11 14  2  0  0  0  0
 12 11  1  0  0  0  0
 12 13  1  0  0  0  0
 13 49  1  0  0  0  0
 13 50  1  0  0  0  0
 14 15  1  0  0  0  0
 14 51  1  0  0  0  0
 15 16  1  0  0  0  0
 17 52  1  0  0  0  0
 17 18  2  0  0  0  0
 18 23  1  0  0  0  0
 19 18  1  0  0  0  0
 19 20  1  0  0  0  0
 20 21  2  0  0  0  0
 21 22  1  0  0  0  0
 21 54  1  0  0  0  0
 22 55  1  0  0  0  0
 23 56  1  0  0  0  0
 23 22  2  0  0  0  0
 24 19  2  0  0  0  0
 25 26  2  0  0  0  0
 25 24  1  0  0  0  0
 26 27  1  0  0  0  0
 28 26  1  0  0  0  0
 28 29  1  0  0  0  0
 29 37  2  0  0  0  0
 30 32  2  0  0  0  0
 30 29  1  0  0  0  0
 31 30  1  0  0  0  0
 32 33  1  0  0  0  0
 33 34  1  0  0  0  0
 33 36  2  0  0  0  0
 35 60  1  0  0  0  0
 35 34  1  0  0  0  0
 36 61  1  0  0  0  0
 37 36  1  0  0  0  0
 37 38  1  0  0  0  0
 39 28  2  0  0  0  0
 40 41  1  0  0  0  0
 40 39  1  0  0  0  0
 41 25  1  0  0  0  0
 42 63  1  0  0  0  0
 42 41  2  0  0  0  0
 43 42  1  0  0  0  0
 44 43  2  0  0  0  0
 44 45  1  0  0  0  0
 45 40  2  0  0  0  0
 46  3  1  0  0  0  0
 47 10  1  0  0  0  0
 48 13  1  0  0  0  0
 53 20  1  0  0  0  0
 57 32  1  0  0  0  0
 58 35  1  0  0  0  0
 59 35  1  0  0  0  0
 62 39  1  0  0  0  0
 64 43  1  0  0  0  0
 65 44  1  0  0  0  0
 66 45  1  0  0  0  0
M  END
$$$$
