O=P1(O)OC2=C([Si](C3=CC=C(C(C)(C)C)C=C3)(C4=CC=C(C(C)(C)C)C=C4)C5=CC=C(C(C)(C)C)C=C5)C=C6C(CCCC6)=C2C7=C(O1)C([Si](C8=CC=C(C(C)(C)C)C=C8)(C9=CC=C(C(C)(C)C)C=C9)C%10=CC=C(C(C)(C)C)C=C%10)=CC%11=C7CCCC%11
 OpenBabel09032010373D

184194  0  0  0  0  0  0  0  0999 V2000
    0.9934    0.0197   -1.9774 O   0  0  0  0  0  0  0  0  0  0  0  0
    0.1282   -0.0216   -0.7548 P   0  0  0  0  0  0  0  0  0  0  0  0
   -0.8048   -1.3272   -0.7211 O   0  0  0  0  0  0  0  0  0  0  0  0
   -0.8998    1.2044   -0.5874 O   0  0  0  0  0  0  0  0  0  0  0  0
   -1.3845    1.6099    0.6361 C   0  0  0  0  0  0  0  0  0  0  0  0
   -2.7978    1.6628    0.7935 C   0  0  0  0  0  0  0  0  0  0  0  0
   -4.0281    1.1345   -0.5309 Si  0  0  0  0  0  0  0  0  0  0  0  0
   -4.4273   -0.6833   -0.3195 C   0  0  0  0  0  0  0  0  0  0  0  0
   -5.5310   -1.2606   -0.9737 C   0  0  0  0  0  0  0  0  0  0  0  0
   -5.8399   -2.6215   -0.8339 C   0  0  0  0  0  0  0  0  0  0  0  0
   -5.0564   -3.4708   -0.0413 C   0  0  0  0  0  0  0  0  0  0  0  0
   -5.3589   -4.9694    0.1261 C   0  0  0  0  0  0  0  0  0  0  0  0
   -6.6129   -5.4434   -0.6427 C   0  0  0  0  0  0  0  0  0  0  0  0
   -4.1643   -5.7993   -0.3912 C   0  0  0  0  0  0  0  0  0  0  0  0
   -5.5909   -5.2890    1.6187 C   0  0  0  0  0  0  0  0  0  0  0  0
   -3.9538   -2.8922    0.6104 C   0  0  0  0  0  0  0  0  0  0  0  0
   -3.6543   -1.5292    0.4864 C   0  0  0  0  0  0  0  0  0  0  0  0
   -3.3156    1.4479   -2.2226 C   0  0  0  0  0  0  0  0  0  0  0  0
   -3.2236    0.4396   -3.1947 C   0  0  0  0  0  0  0  0  0  0  0  0
   -2.6198    0.6718   -4.4393 C   0  0  0  0  0  0  0  0  0  0  0  0
   -2.0802    1.9213   -4.7712 C   0  0  0  0  0  0  0  0  0  0  0  0
   -1.3880    2.1999   -6.1150 C   0  0  0  0  0  0  0  0  0  0  0  0
   -1.3849    0.9917   -7.0788 C   0  0  0  0  0  0  0  0  0  0  0  0
   -2.1052    3.3589   -6.8409 C   0  0  0  0  0  0  0  0  0  0  0  0
    0.0849    2.5902   -5.8659 C   0  0  0  0  0  0  0  0  0  0  0  0
   -2.1768    2.9328   -3.8019 C   0  0  0  0  0  0  0  0  0  0  0  0
   -2.7779    2.7031   -2.5583 C   0  0  0  0  0  0  0  0  0  0  0  0
   -5.6497    2.0599   -0.3168 C   0  0  0  0  0  0  0  0  0  0  0  0
   -6.0049    3.1620   -1.1097 C   0  0  0  0  0  0  0  0  0  0  0  0
   -7.2285    3.8299   -0.9365 C   0  0  0  0  0  0  0  0  0  0  0  0
   -8.1544    3.4271    0.0350 C   0  0  0  0  0  0  0  0  0  0  0  0
   -9.5035    4.1341    0.2473 C   0  0  0  0  0  0  0  0  0  0  0  0
  -10.6561    3.1353    0.0074 C   0  0  0  0  0  0  0  0  0  0  0  0
   -9.7349    5.3350   -0.6976 C   0  0  0  0  0  0  0  0  0  0  0  0
   -9.5877    4.6691    1.6933 C   0  0  0  0  0  0  0  0  0  0  0  0
   -7.8028    2.3215    0.8258 C   0  0  0  0  0  0  0  0  0  0  0  0
   -6.5837    1.6531    0.6540 C   0  0  0  0  0  0  0  0  0  0  0  0
   -3.2816    2.1128    2.0324 C   0  0  0  0  0  0  0  0  0  0  0  0
   -2.4135    2.4505    3.0706 C   0  0  0  0  0  0  0  0  0  0  0  0
   -1.0150    2.4065    2.8814 C   0  0  0  0  0  0  0  0  0  0  0  0
   -0.1847    2.6606    4.1310 C   0  0  0  0  0  0  0  0  0  0  0  0
   -0.7581    1.8833    5.3185 C   0  0  0  0  0  0  0  0  0  0  0  0
   -2.2504    2.1402    5.5561 C   0  0  0  0  0  0  0  0  0  0  0  0
   -2.9491    2.8786    4.4140 C   0  0  0  0  0  0  0  0  0  0  0  0
   -0.4525    2.0563    1.6251 C   0  0  0  0  0  0  0  0  0  0  0  0
    0.9721    2.1145    1.3835 C   0  0  0  0  0  0  0  0  0  0  0  0
    1.6711    0.9453    0.9958 C   0  0  0  0  0  0  0  0  0  0  0  0
    0.9119   -0.1407    0.6518 O   0  0  0  0  0  0  0  0  0  0  0  0
    3.0714    0.8316    0.9304 C   0  0  0  0  0  0  0  0  0  0  0  0
    4.0073   -0.7510    0.5757 Si  0  0  0  0  0  0  0  0  0  0  0  0
    4.8295   -1.3427    2.1567 C   0  0  0  0  0  0  0  0  0  0  0  0
    5.4765   -2.5906    2.1998 C   0  0  0  0  0  0  0  0  0  0  0  0
    6.0766   -3.0611    3.3741 C   0  0  0  0  0  0  0  0  0  0  0  0
    6.0535   -2.3143    4.5637 C   0  0  0  0  0  0  0  0  0  0  0  0
    6.7176   -2.8647    5.8364 C   0  0  0  0  0  0  0  0  0  0  0  0
    6.0537   -4.2014    6.2318 C   0  0  0  0  0  0  0  0  0  0  0  0
    8.2212   -3.1017    5.5768 C   0  0  0  0  0  0  0  0  0  0  0  0
    6.6084   -1.9219    7.0562 C   0  0  0  0  0  0  0  0  0  0  0  0
    5.4016   -1.0747    4.5223 C   0  0  0  0  0  0  0  0  0  0  0  0
    4.8019   -0.5994    3.3468 C   0  0  0  0  0  0  0  0  0  0  0  0
    5.2987   -0.3407   -0.7103 C   0  0  0  0  0  0  0  0  0  0  0  0
    6.6590   -0.6427   -0.5453 C   0  0  0  0  0  0  0  0  0  0  0  0
    7.6075   -0.3170   -1.5269 C   0  0  0  0  0  0  0  0  0  0  0  0
    7.2409    0.3294   -2.7150 C   0  0  0  0  0  0  0  0  0  0  0  0
    8.2547    0.6978   -3.8108 C   0  0  0  0  0  0  0  0  0  0  0  0
    9.7069    0.2816   -3.4843 C   0  0  0  0  0  0  0  0  0  0  0  0
    8.2551    2.2270   -4.0243 C   0  0  0  0  0  0  0  0  0  0  0  0
    7.8671    0.0005   -5.1328 C   0  0  0  0  0  0  0  0  0  0  0  0
    5.8813    0.6419   -2.8757 C   0  0  0  0  0  0  0  0  0  0  0  0
    4.9330    0.3186   -1.8975 C   0  0  0  0  0  0  0  0  0  0  0  0
    2.9304   -2.1666   -0.0012 C   0  0  0  0  0  0  0  0  0  0  0  0
    2.1607   -2.9059    0.9168 C   0  0  0  0  0  0  0  0  0  0  0  0
    1.3596   -3.9843    0.5125 C   0  0  0  0  0  0  0  0  0  0  0  0
    1.2884   -4.3774   -0.8297 C   0  0  0  0  0  0  0  0  0  0  0  0
    0.4280   -5.5582   -1.3096 C   0  0  0  0  0  0  0  0  0  0  0  0
   -0.6091   -5.0602   -2.3394 C   0  0  0  0  0  0  0  0  0  0  0  0
    1.3297   -6.6226   -1.9708 C   0  0  0  0  0  0  0  0  0  0  0  0
   -0.3545   -6.2605   -0.1771 C   0  0  0  0  0  0  0  0  0  0  0  0
    2.0563   -3.6409   -1.7473 C   0  0  0  0  0  0  0  0  0  0  0  0
    2.8599   -2.5647   -1.3439 C   0  0  0  0  0  0  0  0  0  0  0  0
    3.7983    2.0133    1.1559 C   0  0  0  0  0  0  0  0  0  0  0  0
    3.1686    3.2371    1.4295 C   0  0  0  0  0  0  0  0  0  0  0  0
    1.7608    3.2976    1.5258 C   0  0  0  0  0  0  0  0  0  0  0  0
    1.0892    4.6489    1.7141 C   0  0  0  0  0  0  0  0  0  0  0  0
    1.9720    5.8340    1.3274 C   0  0  0  0  0  0  0  0  0  0  0  0
    3.3196    5.7117    2.0193 C   0  0  0  0  0  0  0  0  0  0  0  0
    4.0459    4.4650    1.5293 C   0  0  0  0  0  0  0  0  0  0  0  0
   -0.2870   -2.1166   -0.9665 H   0  0  0  0  0  0  0  0  0  0  0  0
   -6.1784   -0.6561   -1.6111 H   0  0  0  0  0  0  0  0  0  0  0  0
   -6.7100   -2.9885   -1.3710 H   0  0  0  0  0  0  0  0  0  0  0  0
   -6.5081   -5.2858   -1.7225 H   0  0  0  0  0  0  0  0  0  0  0  0
   -6.7885   -6.5151   -0.4897 H   0  0  0  0  0  0  0  0  0  0  0  0
   -7.5146   -4.9181   -0.3066 H   0  0  0  0  0  0  0  0  0  0  0  0
   -4.3667   -6.8740   -0.3141 H   0  0  0  0  0  0  0  0  0  0  0  0
   -3.9535   -5.5741   -1.4434 H   0  0  0  0  0  0  0  0  0  0  0  0
   -3.2478   -5.6045    0.1766 H   0  0  0  0  0  0  0  0  0  0  0  0
   -5.8431   -6.3462    1.7621 H   0  0  0  0  0  0  0  0  0  0  0  0
   -4.7039   -5.0862    2.2289 H   0  0  0  0  0  0  0  0  0  0  0  0
   -6.4146   -4.6912    2.0267 H   0  0  0  0  0  0  0  0  0  0  0  0
   -3.2906   -3.4957    1.2264 H   0  0  0  0  0  0  0  0  0  0  0  0
   -2.7832   -1.1543    1.0225 H   0  0  0  0  0  0  0  0  0  0  0  0
   -3.5953   -0.5655   -3.0004 H   0  0  0  0  0  0  0  0  0  0  0  0
   -2.5739   -0.1660   -5.1294 H   0  0  0  0  0  0  0  0  0  0  0  0
   -2.4035    0.6693   -7.3244 H   0  0  0  0  0  0  0  0  0  0  0  0
   -0.8491    0.1358   -6.6520 H   0  0  0  0  0  0  0  0  0  0  0  0
   -0.8888    1.2418   -8.0243 H   0  0  0  0  0  0  0  0  0  0  0  0
   -3.1644    3.1267   -7.0038 H   0  0  0  0  0  0  0  0  0  0  0  0
   -2.0570    4.2959   -6.2756 H   0  0  0  0  0  0  0  0  0  0  0  0
   -1.6518    3.5528   -7.8201 H   0  0  0  0  0  0  0  0  0  0  0  0
    0.1757    3.5087   -5.2757 H   0  0  0  0  0  0  0  0  0  0  0  0
    0.6168    1.7982   -5.3252 H   0  0  0  0  0  0  0  0  0  0  0  0
    0.6135    2.7623   -6.8107 H   0  0  0  0  0  0  0  0  0  0  0  0
   -1.7623    3.9205   -3.9904 H   0  0  0  0  0  0  0  0  0  0  0  0
   -2.7870    3.5225   -1.8396 H   0  0  0  0  0  0  0  0  0  0  0  0
   -5.3458    3.5284   -1.8942 H   0  0  0  0  0  0  0  0  0  0  0  0
   -7.4312    4.6720   -1.5936 H   0  0  0  0  0  0  0  0  0  0  0  0
  -10.6082    2.7130   -1.0034 H   0  0  0  0  0  0  0  0  0  0  0  0
  -10.6336    2.2988    0.7145 H   0  0  0  0  0  0  0  0  0  0  0  0
  -11.6316    3.6231    0.1193 H   0  0  0  0  0  0  0  0  0  0  0  0
   -9.7288    5.0278   -1.7499 H   0  0  0  0  0  0  0  0  0  0  0  0
   -8.9692    6.1078   -0.5627 H   0  0  0  0  0  0  0  0  0  0  0  0
  -10.7062    5.8069   -0.5061 H   0  0  0  0  0  0  0  0  0  0  0  0
   -9.5445    3.8651    2.4362 H   0  0  0  0  0  0  0  0  0  0  0  0
   -8.7629    5.3593    1.9072 H   0  0  0  0  0  0  0  0  0  0  0  0
  -10.5268    5.2094    1.8609 H   0  0  0  0  0  0  0  0  0  0  0  0
   -8.4796    1.9532    1.5938 H   0  0  0  0  0  0  0  0  0  0  0  0
   -6.3826    0.7963    1.2983 H   0  0  0  0  0  0  0  0  0  0  0  0
   -4.3513    2.1793    2.2238 H   0  0  0  0  0  0  0  0  0  0  0  0
    0.8570    2.3528    4.0030 H   0  0  0  0  0  0  0  0  0  0  0  0
   -0.1934    3.7317    4.3608 H   0  0  0  0  0  0  0  0  0  0  0  0
   -0.1925    2.1206    6.2272 H   0  0  0  0  0  0  0  0  0  0  0  0
   -0.6139    0.8088    5.1416 H   0  0  0  0  0  0  0  0  0  0  0  0
   -2.7436    1.1729    5.7185 H   0  0  0  0  0  0  0  0  0  0  0  0
   -2.3898    2.7065    6.4849 H   0  0  0  0  0  0  0  0  0  0  0  0
   -4.0300    2.7097    4.4846 H   0  0  0  0  0  0  0  0  0  0  0  0
   -2.7930    3.9602    4.5153 H   0  0  0  0  0  0  0  0  0  0  0  0
    5.5203   -3.2268    1.3149 H   0  0  0  0  0  0  0  0  0  0  0  0
    6.5626   -4.0341    3.3413 H   0  0  0  0  0  0  0  0  0  0  0  0
    6.1810   -4.9710    5.4626 H   0  0  0  0  0  0  0  0  0  0  0  0
    4.9769   -4.0741    6.3948 H   0  0  0  0  0  0  0  0  0  0  0  0
    6.4864   -4.5991    7.1573 H   0  0  0  0  0  0  0  0  0  0  0  0
    8.7180   -2.1758    5.2632 H   0  0  0  0  0  0  0  0  0  0  0  0
    8.7264   -3.4617    6.4807 H   0  0  0  0  0  0  0  0  0  0  0  0
    8.3943   -3.8489    4.7946 H   0  0  0  0  0  0  0  0  0  0  0  0
    5.5633   -1.7345    7.3292 H   0  0  0  0  0  0  0  0  0  0  0  0
    7.0899   -0.9560    6.8639 H   0  0  0  0  0  0  0  0  0  0  0  0
    7.0978   -2.3562    7.9363 H   0  0  0  0  0  0  0  0  0  0  0  0
    5.3341   -0.4402    5.4020 H   0  0  0  0  0  0  0  0  0  0  0  0
    4.3034    0.3671    3.3996 H   0  0  0  0  0  0  0  0  0  0  0  0
    7.0226   -1.1346    0.3551 H   0  0  0  0  0  0  0  0  0  0  0  0
    8.6410   -0.5866   -1.3251 H   0  0  0  0  0  0  0  0  0  0  0  0
   10.0712    0.7693   -2.5725 H   0  0  0  0  0  0  0  0  0  0  0  0
    9.7954   -0.8028   -3.3506 H   0  0  0  0  0  0  0  0  0  0  0  0
   10.3902    0.5631   -4.2946 H   0  0  0  0  0  0  0  0  0  0  0  0
    8.9952    2.5207   -4.7779 H   0  0  0  0  0  0  0  0  0  0  0  0
    7.2834    2.5977   -4.3685 H   0  0  0  0  0  0  0  0  0  0  0  0
    8.4981    2.7550   -3.0945 H   0  0  0  0  0  0  0  0  0  0  0  0
    8.5949    0.2190   -5.9231 H   0  0  0  0  0  0  0  0  0  0  0  0
    7.8271   -1.0880   -5.0076 H   0  0  0  0  0  0  0  0  0  0  0  0
    6.8878    0.3253   -5.5013 H   0  0  0  0  0  0  0  0  0  0  0  0
    5.5308    1.1477   -3.7732 H   0  0  0  0  0  0  0  0  0  0  0  0
    3.8939    0.5928   -2.0886 H   0  0  0  0  0  0  0  0  0  0  0  0
    2.1716   -2.6542    1.9788 H   0  0  0  0  0  0  0  0  0  0  0  0
    0.8029   -4.5034    1.2886 H   0  0  0  0  0  0  0  0  0  0  0  0
   -0.1366   -4.6359   -3.2321 H   0  0  0  0  0  0  0  0  0  0  0  0
   -1.2549   -5.8791   -2.6773 H   0  0  0  0  0  0  0  0  0  0  0  0
   -1.2530   -4.2848   -1.9079 H   0  0  0  0  0  0  0  0  0  0  0  0
    2.0988   -6.9761   -1.2738 H   0  0  0  0  0  0  0  0  0  0  0  0
    0.7447   -7.4926   -2.2912 H   0  0  0  0  0  0  0  0  0  0  0  0
    1.8429   -6.2373   -2.8587 H   0  0  0  0  0  0  0  0  0  0  0  0
   -0.9537   -7.0919   -0.5675 H   0  0  0  0  0  0  0  0  0  0  0  0
   -1.0460   -5.5720    0.3226 H   0  0  0  0  0  0  0  0  0  0  0  0
    0.3192   -6.6776    0.5805 H   0  0  0  0  0  0  0  0  0  0  0  0
    2.0505   -3.8955   -2.8060 H   0  0  0  0  0  0  0  0  0  0  0  0
    3.4240   -2.0449   -2.1173 H   0  0  0  0  0  0  0  0  0  0  0  0
    4.8891    2.0038    1.0893 H   0  0  0  0  0  0  0  0  0  0  0  0
    0.8150    4.7669    2.7648 H   0  0  0  0  0  0  0  0  0  0  0  0
    0.1738    4.7027    1.1135 H   0  0  0  0  0  0  0  0  0  0  0  0
    1.4812    6.7688    1.6203 H   0  0  0  0  0  0  0  0  0  0  0  0
    2.1095    5.8667    0.2393 H   0  0  0  0  0  0  0  0  0  0  0  0
    3.1737    5.6570    3.1056 H   0  0  0  0  0  0  0  0  0  0  0  0
    3.9326    6.5984    1.8228 H   0  0  0  0  0  0  0  0  0  0  0  0
    4.4567    4.6643    0.5310 H   0  0  0  0  0  0  0  0  0  0  0  0
    4.8906    4.2627    2.1989 H   0  0  0  0  0  0  0  0  0  0  0  0
  1  2  2  0  0  0  0
  2  3  1  0  0  0  0
  2  4  1  0  0  0  0
  2 48  1  0  0  0  0
  4  5  1  0  0  0  0
  5  6  2  0  0  0  0
  5 45  1  0  0  0  0
  6 38  1  0  0  0  0
  7  8  1  0  0  0  0
  7 28  1  0  0  0  0
  7  6  1  0  0  0  0
  8 17  2  0  0  0  0
  9 10  2  0  0  0  0
  9  8  1  0  0  0  0
 10 11  1  0  0  0  0
 11 12  1  0  0  0  0
 11 16  2  0  0  0  0
 12 15  1  0  0  0  0
 13 92  1  0  0  0  0
 13 93  1  0  0  0  0
 13 12  1  0  0  0  0
 14 94  1  0  0  0  0
 14 12  1  0  0  0  0
 14 96  1  0  0  0  0
 15 97  1  0  0  0  0
 15 99  1  0  0  0  0
 15 98  1  0  0  0  0
 16100  1  0  0  0  0
 17 16  1  0  0  0  0
 17101  1  0  0  0  0
 18  7  1  0  0  0  0
 19102  1  0  0  0  0
 19 18  2  0  0  0  0
 20 19  1  0  0  0  0
 21 20  2  0  0  0  0
 21 26  1  0  0  0  0
 22 25  1  0  0  0  0
 22 21  1  0  0  0  0
 23105  1  0  0  0  0
 23 22  1  0  0  0  0
 24108  1  0  0  0  0
 24 22  1  0  0  0  0
 25111  1  0  0  0  0
 25110  1  0  0  0  0
 26 27  2  0  0  0  0
 27 18  1  0  0  0  0
 27114  1  0  0  0  0
 28 37  2  0  0  0  0
 29 30  2  0  0  0  0
 29 28  1  0  0  0  0
 30 31  1  0  0  0  0
 31 32  1  0  0  0  0
 31 36  2  0  0  0  0
 32 35  1  0  0  0  0
 33119  1  0  0  0  0
 33 32  1  0  0  0  0
 33118  1  0  0  0  0
 34121  1  0  0  0  0
 34122  1  0  0  0  0
 34 32  1  0  0  0  0
 35125  1  0  0  0  0
 35124  1  0  0  0  0
 35123  1  0  0  0  0
 36126  1  0  0  0  0
 37 36  1  0  0  0  0
 37127  1  0  0  0  0
 38128  1  0  0  0  0
 38 39  2  0  0  0  0
 39 44  1  0  0  0  0
 40 39  1  0  0  0  0
 40 41  1  0  0  0  0
 41130  1  0  0  0  0
 41 42  1  0  0  0  0
 42 43  1  0  0  0  0
 42131  1  0  0  0  0
 43133  1  0  0  0  0
 43134  1  0  0  0  0
 44135  1  0  0  0  0
 44136  1  0  0  0  0
 44 43  1  0  0  0  0
 45 40  2  0  0  0  0
 46 83  2  0  0  0  0
 46 45  1  0  0  0  0
 47 46  1  0  0  0  0
 48 47  1  0  0  0  0
 49 47  2  0  0  0  0
 49 81  1  0  0  0  0
 50 49  1  0  0  0  0
 50 51  1  0  0  0  0
 51 52  2  0  0  0  0
 51 60  1  0  0  0  0
 52 53  1  0  0  0  0
 53 54  2  0  0  0  0
 54 55  1  0  0  0  0
 55 56  1  0  0  0  0
 55 58  1  0  0  0  0
 56140  1  0  0  0  0
 56141  1  0  0  0  0
 57 55  1  0  0  0  0
 57143  1  0  0  0  0
 58145  1  0  0  0  0
 58147  1  0  0  0  0
 59 54  1  0  0  0  0
 59148  1  0  0  0  0
 60149  1  0  0  0  0
 60 59  2  0  0  0  0
 61 62  1  0  0  0  0
 61 50  1  0  0  0  0
 62150  1  0  0  0  0
 63151  1  0  0  0  0
 63 62  2  0  0  0  0
 64 63  1  0  0  0  0
 65 66  1  0  0  0  0
 65 64  1  0  0  0  0
 66153  1  0  0  0  0
 66152  1  0  0  0  0
 67 65  1  0  0  0  0
 67157  1  0  0  0  0
 68159  1  0  0  0  0
 68 65  1  0  0  0  0
 69 64  2  0  0  0  0
 69 70  1  0  0  0  0
 70 61  2  0  0  0  0
 71 50  1  0  0  0  0
 71 72  2  0  0  0  0
 72163  1  0  0  0  0
 73 72  1  0  0  0  0
 73164  1  0  0  0  0
 74 73  2  0  0  0  0
 75 74  1  0  0  0  0
 75 78  1  0  0  0  0
 76167  1  0  0  0  0
 76 75  1  0  0  0  0
 77 75  1  0  0  0  0
 77168  1  0  0  0  0
 78172  1  0  0  0  0
 78173  1  0  0  0  0
 79 80  2  0  0  0  0
 79 74  1  0  0  0  0
 80 71  1  0  0  0  0
 81 82  2  0  0  0  0
 82 83  1  0  0  0  0
 82 87  1  0  0  0  0
 83 84  1  0  0  0  0
 84177  1  0  0  0  0
 85179  1  0  0  0  0
 85 84  1  0  0  0  0
 85 86  1  0  0  0  0
 86181  1  0  0  0  0
 87 86  1  0  0  0  0
 87184  1  0  0  0  0
 88  3  1  0  0  0  0
 89  9  1  0  0  0  0
 90 10  1  0  0  0  0
 91 13  1  0  0  0  0
 95 14  1  0  0  0  0
103 20  1  0  0  0  0
104 23  1  0  0  0  0
106 23  1  0  0  0  0
107 24  1  0  0  0  0
109 24  1  0  0  0  0
112 25  1  0  0  0  0
113 26  1  0  0  0  0
115 29  1  0  0  0  0
116 30  1  0  0  0  0
117 33  1  0  0  0  0
120 34  1  0  0  0  0
129 41  1  0  0  0  0
132 42  1  0  0  0  0
137 52  1  0  0  0  0
138 53  1  0  0  0  0
139 56  1  0  0  0  0
142 57  1  0  0  0  0
144 57  1  0  0  0  0
146 58  1  0  0  0  0
154 66  1  0  0  0  0
155 67  1  0  0  0  0
156 67  1  0  0  0  0
158 68  1  0  0  0  0
160 68  1  0  0  0  0
161 69  1  0  0  0  0
162 70  1  0  0  0  0
165 76  1  0  0  0  0
166 76  1  0  0  0  0
169 77  1  0  0  0  0
170 77  1  0  0  0  0
171 78  1  0  0  0  0
174 79  1  0  0  0  0
175 80  1  0  0  0  0
176 81  1  0  0  0  0
178 84  1  0  0  0  0
180 85  1  0  0  0  0
182 86  1  0  0  0  0
183 87  1  0  0  0  0
M  END
$$$$
