O=P1(O)OC2=C(C3=CC(COC)=CC=C3)C=C4C(C=CC=C4)=C2C5=C(O1)C(C6=CC=CC(COC)=C6)=CC7=C5C=CC=C7
 OpenBabel09032010383D

 72 78  0  0  0  0  0  0  0  0999 V2000
    0.5291    2.2359    0.1063 O   0  0  0  0  0  0  0  0  0  0  0  0
   -0.0499    1.0174   -0.5433 P   0  0  0  0  0  0  0  0  0  0  0  0
   -0.9354    1.3905   -1.8332 O   0  0  0  0  0  0  0  0  0  0  0  0
    0.9962   -0.0748   -1.1007 O   0  0  0  0  0  0  0  0  0  0  0  0
    1.5411   -0.9581   -0.1919 C   0  0  0  0  0  0  0  0  0  0  0  0
    2.9160   -0.8325    0.0753 C   0  0  0  0  0  0  0  0  0  0  0  0
    3.7506    0.1982   -0.5553 C   0  0  0  0  0  0  0  0  0  0  0  0
    3.7080    1.5261   -0.1039 C   0  0  0  0  0  0  0  0  0  0  0  0
    4.4828    2.5320   -0.7029 C   0  0  0  0  0  0  0  0  0  0  0  0
    4.3220    3.9572   -0.2338 C   0  0  0  0  0  0  0  0  0  0  0  0
    5.4943    4.7270   -0.5061 O   0  0  0  0  0  0  0  0  0  0  0  0
    5.3286    6.0772   -0.0962 C   0  0  0  0  0  0  0  0  0  0  0  0
    5.3173    2.1878   -1.7725 C   0  0  0  0  0  0  0  0  0  0  0  0
    5.3862    0.8687   -2.2222 C   0  0  0  0  0  0  0  0  0  0  0  0
    4.6065   -0.1191   -1.6185 C   0  0  0  0  0  0  0  0  0  0  0  0
    3.4933   -1.7269    0.9775 C   0  0  0  0  0  0  0  0  0  0  0  0
    2.7288   -2.6968    1.6306 C   0  0  0  0  0  0  0  0  0  0  0  0
    1.3418   -2.8231    1.3491 C   0  0  0  0  0  0  0  0  0  0  0  0
    0.6283   -3.7697    2.1279 C   0  0  0  0  0  0  0  0  0  0  0  0
    1.2509   -4.5838    3.0776 C   0  0  0  0  0  0  0  0  0  0  0  0
    2.6139   -4.4689    3.2963 C   0  0  0  0  0  0  0  0  0  0  0  0
    3.3466   -3.5272    2.5804 C   0  0  0  0  0  0  0  0  0  0  0  0
    0.7219   -1.9783    0.3585 C   0  0  0  0  0  0  0  0  0  0  0  0
   -0.6476   -2.1356   -0.0928 C   0  0  0  0  0  0  0  0  0  0  0  0
   -1.5352   -1.0318   -0.0681 C   0  0  0  0  0  0  0  0  0  0  0  0
   -1.0746    0.1867    0.3800 O   0  0  0  0  0  0  0  0  0  0  0  0
   -2.8971   -1.1017   -0.4177 C   0  0  0  0  0  0  0  0  0  0  0  0
   -3.7776    0.0809   -0.3966 C   0  0  0  0  0  0  0  0  0  0  0  0
   -4.4029    0.5258   -1.5728 C   0  0  0  0  0  0  0  0  0  0  0  0
   -5.2069    1.6659   -1.5711 C   0  0  0  0  0  0  0  0  0  0  0  0
   -5.3946    2.3831   -0.3917 C   0  0  0  0  0  0  0  0  0  0  0  0
   -4.7852    1.9669    0.7987 C   0  0  0  0  0  0  0  0  0  0  0  0
   -4.9917    2.7410    2.0746 C   0  0  0  0  0  0  0  0  0  0  0  0
   -4.6076    4.0981    1.8583 O   0  0  0  0  0  0  0  0  0  0  0  0
   -4.7567    4.8768    3.0370 C   0  0  0  0  0  0  0  0  0  0  0  0
   -3.9913    0.8097    0.7857 C   0  0  0  0  0  0  0  0  0  0  0  0
   -3.3978   -2.3396   -0.8225 C   0  0  0  0  0  0  0  0  0  0  0  0
   -2.5739   -3.4643   -0.9238 C   0  0  0  0  0  0  0  0  0  0  0  0
   -1.1953   -3.3743   -0.5909 C   0  0  0  0  0  0  0  0  0  0  0  0
   -0.4182   -4.5361   -0.8331 C   0  0  0  0  0  0  0  0  0  0  0  0
   -0.9738   -5.7304   -1.2998 C   0  0  0  0  0  0  0  0  0  0  0  0
   -2.3315   -5.8016   -1.5639 C   0  0  0  0  0  0  0  0  0  0  0  0
   -3.1241   -4.6724   -1.3845 C   0  0  0  0  0  0  0  0  0  0  0  0
   -1.5369    2.1299   -1.6269 H   0  0  0  0  0  0  0  0  0  0  0  0
    3.0442    1.7875    0.7200 H   0  0  0  0  0  0  0  0  0  0  0  0
    4.1400    3.9704    0.8476 H   0  0  0  0  0  0  0  0  0  0  0  0
    3.4624    4.3998   -0.7510 H   0  0  0  0  0  0  0  0  0  0  0  0
    6.2494    6.6211   -0.3235 H   0  0  0  0  0  0  0  0  0  0  0  0
    4.5036    6.5457   -0.6414 H   0  0  0  0  0  0  0  0  0  0  0  0
    5.1483    6.1323    0.9818 H   0  0  0  0  0  0  0  0  0  0  0  0
    5.9177    2.9513   -2.2629 H   0  0  0  0  0  0  0  0  0  0  0  0
    6.0399    0.6135   -3.0519 H   0  0  0  0  0  0  0  0  0  0  0  0
    4.6571   -1.1394   -1.9918 H   0  0  0  0  0  0  0  0  0  0  0  0
    4.5570   -1.6352    1.1967 H   0  0  0  0  0  0  0  0  0  0  0  0
   -0.4488   -3.8801    2.0140 H   0  0  0  0  0  0  0  0  0  0  0  0
    0.6624   -5.2989    3.6460 H   0  0  0  0  0  0  0  0  0  0  0  0
    3.1056   -5.0966    4.0339 H   0  0  0  0  0  0  0  0  0  0  0  0
    4.4120   -3.4351    2.7841 H   0  0  0  0  0  0  0  0  0  0  0  0
   -4.2486   -0.0084   -2.5088 H   0  0  0  0  0  0  0  0  0  0  0  0
   -5.6790    2.0001   -2.4914 H   0  0  0  0  0  0  0  0  0  0  0  0
   -6.0105    3.2804   -0.4004 H   0  0  0  0  0  0  0  0  0  0  0  0
   -4.3867    2.3184    2.8854 H   0  0  0  0  0  0  0  0  0  0  0  0
   -6.0486    2.6892    2.3618 H   0  0  0  0  0  0  0  0  0  0  0  0
   -4.4572    5.9038    2.8116 H   0  0  0  0  0  0  0  0  0  0  0  0
   -5.8010    4.8811    3.3640 H   0  0  0  0  0  0  0  0  0  0  0  0
   -4.1134    4.4927    3.8345 H   0  0  0  0  0  0  0  0  0  0  0  0
   -3.5174    0.4755    1.7079 H   0  0  0  0  0  0  0  0  0  0  0  0
   -4.4522   -2.4191   -1.0859 H   0  0  0  0  0  0  0  0  0  0  0  0
    0.6581   -4.5237   -0.6711 H   0  0  0  0  0  0  0  0  0  0  0  0
   -0.3377   -6.5967   -1.4611 H   0  0  0  0  0  0  0  0  0  0  0  0
   -2.7713   -6.7258   -1.9282 H   0  0  0  0  0  0  0  0  0  0  0  0
   -4.1837   -4.7397   -1.6248 H   0  0  0  0  0  0  0  0  0  0  0  0
  2  1  2  0  0  0  0
  2 26  1  0  0  0  0
  3 44  1  0  0  0  0
  3  2  1  0  0  0  0
  4  2  1  0  0  0  0
  4  5  1  0  0  0  0
  5  6  2  0  0  0  0
  5 23  1  0  0  0  0
  6 16  1  0  0  0  0
  7  8  1  0  0  0  0
  7  6  1  0  0  0  0
  8 45  1  0  0  0  0
  9 10  1  0  0  0  0
  9  8  2  0  0  0  0
 10 46  1  0  0  0  0
 11 10  1  0  0  0  0
 11 12  1  0  0  0  0
 12 50  1  0  0  0  0
 13  9  1  0  0  0  0
 14 13  2  0  0  0  0
 14 15  1  0  0  0  0
 15  7  2  0  0  0  0
 16 54  1  0  0  0  0
 16 17  2  0  0  0  0
 17 22  1  0  0  0  0
 18 17  1  0  0  0  0
 18 19  1  0  0  0  0
 19 20  2  0  0  0  0
 20 21  1  0  0  0  0
 20 56  1  0  0  0  0
 21 57  1  0  0  0  0
 22 58  1  0  0  0  0
 22 21  2  0  0  0  0
 23 18  2  0  0  0  0
 24 25  1  0  0  0  0
 24 23  1  0  0  0  0
 25 26  1  0  0  0  0
 27 28  1  0  0  0  0
 27 25  2  0  0  0  0
 28 36  2  0  0  0  0
 29 30  2  0  0  0  0
 29 28  1  0  0  0  0
 30 31  1  0  0  0  0
 31 32  2  0  0  0  0
 32 33  1  0  0  0  0
 33 63  1  0  0  0  0
 33 62  1  0  0  0  0
 34 33  1  0  0  0  0
 34 35  1  0  0  0  0
 35 65  1  0  0  0  0
 35 66  1  0  0  0  0
 36 32  1  0  0  0  0
 36 67  1  0  0  0  0
 37 27  1  0  0  0  0
 38 37  2  0  0  0  0
 38 39  1  0  0  0  0
 39 24  2  0  0  0  0
 40 69  1  0  0  0  0
 40 39  1  0  0  0  0
 41 40  2  0  0  0  0
 42 43  2  0  0  0  0
 42 41  1  0  0  0  0
 43 38  1  0  0  0  0
 47 10  1  0  0  0  0
 48 12  1  0  0  0  0
 49 12  1  0  0  0  0
 51 13  1  0  0  0  0
 52 14  1  0  0  0  0
 53 15  1  0  0  0  0
 55 19  1  0  0  0  0
 59 29  1  0  0  0  0
 60 30  1  0  0  0  0
 61 31  1  0  0  0  0
 64 35  1  0  0  0  0
 68 37  1  0  0  0  0
 70 41  1  0  0  0  0
 71 42  1  0  0  0  0
 72 43  1  0  0  0  0
M  END
$$$$
