O=P1(O)OC2=C(C3=CC(C(F)(F)F)=CC(C(F)(F)F)=C3)C=C4C(CCCC4)=C2C5=C(O1)C(C6=CC(C(F)(F)F)=CC(C(F)(F)F)=C6)=CC7=C5CCCC7
 OpenBabel09032010383D

 78 84  0  0  0  0  0  0  0  0999 V2000
    0.4631   -3.2518   -0.2831 O   0  0  0  0  0  0  0  0  0  0  0  0
   -0.0738   -2.0364    0.4086 P   0  0  0  0  0  0  0  0  0  0  0  0
   -0.8290   -2.4717    1.7621 O   0  0  0  0  0  0  0  0  0  0  0  0
   -1.1880   -1.2209   -0.4238 O   0  0  0  0  0  0  0  0  0  0  0  0
   -1.5650    0.0313    0.0053 C   0  0  0  0  0  0  0  0  0  0  0  0
   -2.9163    0.2150    0.3486 C   0  0  0  0  0  0  0  0  0  0  0  0
   -3.9148   -0.8531    0.2109 C   0  0  0  0  0  0  0  0  0  0  0  0
   -4.7508   -0.9054   -0.9149 C   0  0  0  0  0  0  0  0  0  0  0  0
   -5.7202   -1.9115   -1.0591 C   0  0  0  0  0  0  0  0  0  0  0  0
   -6.5972   -1.9548   -2.2887 C   0  0  0  0  0  0  0  0  0  0  0  0
   -7.8119   -2.5257   -2.0544 F   0  0  0  0  0  0  0  0  0  0  0  0
   -6.8607   -0.7203   -2.8002 F   0  0  0  0  0  0  0  0  0  0  0  0
   -6.0353   -2.6700   -3.3005 F   0  0  0  0  0  0  0  0  0  0  0  0
   -5.8327   -2.8931   -0.0609 C   0  0  0  0  0  0  0  0  0  0  0  0
   -5.0054   -2.8668    1.0730 C   0  0  0  0  0  0  0  0  0  0  0  0
   -5.1148   -3.9153    2.1536 C   0  0  0  0  0  0  0  0  0  0  0  0
   -3.9162   -4.4968    2.4399 F   0  0  0  0  0  0  0  0  0  0  0  0
   -5.5744   -3.4040    3.3284 F   0  0  0  0  0  0  0  0  0  0  0  0
   -5.9574   -4.9372    1.8352 F   0  0  0  0  0  0  0  0  0  0  0  0
   -4.0603   -1.8353    1.2003 C   0  0  0  0  0  0  0  0  0  0  0  0
   -3.3079    1.4673    0.8278 C   0  0  0  0  0  0  0  0  0  0  0  0
   -2.3801    2.5032    1.0011 C   0  0  0  0  0  0  0  0  0  0  0  0
   -1.0282    2.3024    0.6373 C   0  0  0  0  0  0  0  0  0  0  0  0
    0.0001    3.3734    0.9831 C   0  0  0  0  0  0  0  0  0  0  0  0
   -0.4797    4.3771    2.0304 C   0  0  0  0  0  0  0  0  0  0  0  0
   -1.8483    4.9095    1.6405 C   0  0  0  0  0  0  0  0  0  0  0  0
   -2.8674    3.7769    1.6543 C   0  0  0  0  0  0  0  0  0  0  0  0
   -0.6121    1.0763    0.0303 C   0  0  0  0  0  0  0  0  0  0  0  0
    0.6990    0.8831   -0.5222 C   0  0  0  0  0  0  0  0  0  0  0  0
    1.5528   -0.1167   -0.0008 C   0  0  0  0  0  0  0  0  0  0  0  0
    1.0424   -0.9934    0.9289 O   0  0  0  0  0  0  0  0  0  0  0  0
    2.9059   -0.2423   -0.3594 C   0  0  0  0  0  0  0  0  0  0  0  0
    3.8126   -1.2145    0.2695 C   0  0  0  0  0  0  0  0  0  0  0  0
    4.7937   -0.7853    1.1795 C   0  0  0  0  0  0  0  0  0  0  0  0
    5.6813   -1.6915    1.7832 C   0  0  0  0  0  0  0  0  0  0  0  0
    6.7512   -1.2106    2.7363 C   0  0  0  0  0  0  0  0  0  0  0  0
    6.4861    0.0101    3.2788 F   0  0  0  0  0  0  0  0  0  0  0  0
    6.9368   -2.0539    3.7899 F   0  0  0  0  0  0  0  0  0  0  0  0
    7.9658   -1.0959    2.1315 F   0  0  0  0  0  0  0  0  0  0  0  0
    5.5815   -3.0535    1.4578 C   0  0  0  0  0  0  0  0  0  0  0  0
    4.6175   -3.5102    0.5447 C   0  0  0  0  0  0  0  0  0  0  0  0
    4.4939   -4.9795    0.2150 C   0  0  0  0  0  0  0  0  0  0  0  0
    4.2324   -5.2120   -1.1002 F   0  0  0  0  0  0  0  0  0  0  0  0
    3.4974   -5.5852    0.9165 F   0  0  0  0  0  0  0  0  0  0  0  0
    5.6271   -5.6834    0.4957 F   0  0  0  0  0  0  0  0  0  0  0  0
    3.7422   -2.5805   -0.0408 C   0  0  0  0  0  0  0  0  0  0  0  0
    3.3954    0.6102   -1.3532 C   0  0  0  0  0  0  0  0  0  0  0  0
    2.5646    1.5360   -2.0000 C   0  0  0  0  0  0  0  0  0  0  0  0
    1.2107    1.6542   -1.6117 C   0  0  0  0  0  0  0  0  0  0  0  0
    0.2794    2.5449   -2.4256 C   0  0  0  0  0  0  0  0  0  0  0  0
    0.8211    2.9071   -3.8076 C   0  0  0  0  0  0  0  0  0  0  0  0
    2.2451    3.4217   -3.6806 C   0  0  0  0  0  0  0  0  0  0  0  0
    3.1508    2.3145   -3.1560 C   0  0  0  0  0  0  0  0  0  0  0  0
   -0.6350   -3.4098    1.9495 H   0  0  0  0  0  0  0  0  0  0  0  0
   -4.6424   -0.1495   -1.6940 H   0  0  0  0  0  0  0  0  0  0  0  0
   -6.5731   -3.6876   -0.1709 H   0  0  0  0  0  0  0  0  0  0  0  0
   -3.4189   -1.8028    2.0825 H   0  0  0  0  0  0  0  0  0  0  0  0
   -4.3472    1.6280    1.1138 H   0  0  0  0  0  0  0  0  0  0  0  0
    0.9118    2.9014    1.3682 H   0  0  0  0  0  0  0  0  0  0  0  0
    0.2675    3.9327    0.0848 H   0  0  0  0  0  0  0  0  0  0  0  0
    0.2392    5.2006    2.1063 H   0  0  0  0  0  0  0  0  0  0  0  0
   -0.5299    3.9001    3.0174 H   0  0  0  0  0  0  0  0  0  0  0  0
   -2.1631    5.6987    2.3323 H   0  0  0  0  0  0  0  0  0  0  0  0
   -1.7999    5.3590    0.6406 H   0  0  0  0  0  0  0  0  0  0  0  0
   -3.1237    3.5433    2.6958 H   0  0  0  0  0  0  0  0  0  0  0  0
   -3.7834    4.1193    1.1579 H   0  0  0  0  0  0  0  0  0  0  0  0
    4.8637    0.2756    1.4242 H   0  0  0  0  0  0  0  0  0  0  0  0
    6.2664   -3.7668    1.9202 H   0  0  0  0  0  0  0  0  0  0  0  0
    2.9977   -2.9317   -0.7572 H   0  0  0  0  0  0  0  0  0  0  0  0
    4.4358    0.5215   -1.6658 H   0  0  0  0  0  0  0  0  0  0  0  0
    0.0943    3.4758   -1.8866 H   0  0  0  0  0  0  0  0  0  0  0  0
   -0.6846    2.0421   -2.5678 H   0  0  0  0  0  0  0  0  0  0  0  0
    0.7967    2.0298   -4.4662 H   0  0  0  0  0  0  0  0  0  0  0  0
    0.1819    3.6712   -4.2640 H   0  0  0  0  0  0  0  0  0  0  0  0
    2.6133    3.7720   -4.6513 H   0  0  0  0  0  0  0  0  0  0  0  0
    2.2690    4.2811   -2.9986 H   0  0  0  0  0  0  0  0  0  0  0  0
    3.3524    1.6060   -3.9699 H   0  0  0  0  0  0  0  0  0  0  0  0
    4.1097    2.7544   -2.8564 H   0  0  0  0  0  0  0  0  0  0  0  0
  1  2  2  0  0  0  0
  2 31  1  0  0  0  0
  2  3  1  0  0  0  0
  3 54  1  0  0  0  0
  4  5  1  0  0  0  0
  4  2  1  0  0  0  0
  5 28  2  0  0  0  0
  5  6  1  0  0  0  0
  6 21  2  0  0  0  0
  7  6  1  0  0  0  0
  7 20  2  0  0  0  0
  8  7  1  0  0  0  0
  9  8  2  0  0  0  0
  9 14  1  0  0  0  0
 10 11  1  0  0  0  0
 10  9  1  0  0  0  0
 12 10  1  0  0  0  0
 13 10  1  0  0  0  0
 14 15  2  0  0  0  0
 15 20  1  0  0  0  0
 15 16  1  0  0  0  0
 16 17  1  0  0  0  0
 16 18  1  0  0  0  0
 19 16  1  0  0  0  0
 20 57  1  0  0  0  0
 21 22  1  0  0  0  0
 21 58  1  0  0  0  0
 22 27  1  0  0  0  0
 23 24  1  0  0  0  0
 23 22  2  0  0  0  0
 24 59  1  0  0  0  0
 24 25  1  0  0  0  0
 25 61  1  0  0  0  0
 25 62  1  0  0  0  0
 26 27  1  0  0  0  0
 26 25  1  0  0  0  0
 26 63  1  0  0  0  0
 27 65  1  0  0  0  0
 28 23  1  0  0  0  0
 29 30  2  0  0  0  0
 29 28  1  0  0  0  0
 30 31  1  0  0  0  0
 32 30  1  0  0  0  0
 32 33  1  0  0  0  0
 33 34  1  0  0  0  0
 34 67  1  0  0  0  0
 34 35  2  0  0  0  0
 35 36  1  0  0  0  0
 36 37  1  0  0  0  0
 36 38  1  0  0  0  0
 39 36  1  0  0  0  0
 40 35  1  0  0  0  0
 40 68  1  0  0  0  0
 41 40  2  0  0  0  0
 42 45  1  0  0  0  0
 42 41  1  0  0  0  0
 42 44  1  0  0  0  0
 43 42  1  0  0  0  0
 46 33  2  0  0  0  0
 46 41  1  0  0  0  0
 47 32  2  0  0  0  0
 48 49  2  0  0  0  0
 48 47  1  0  0  0  0
 49 29  1  0  0  0  0
 50 71  1  0  0  0  0
 50 49  1  0  0  0  0
 51 52  1  0  0  0  0
 51 50  1  0  0  0  0
 52 53  1  0  0  0  0
 52 76  1  0  0  0  0
 53 78  1  0  0  0  0
 53 48  1  0  0  0  0
 55  8  1  0  0  0  0
 56 14  1  0  0  0  0
 60 24  1  0  0  0  0
 64 26  1  0  0  0  0
 66 27  1  0  0  0  0
 69 46  1  0  0  0  0
 70 47  1  0  0  0  0
 72 50  1  0  0  0  0
 73 51  1  0  0  0  0
 74 51  1  0  0  0  0
 75 52  1  0  0  0  0
 77 53  1  0  0  0  0
M  END
$$$$
