O=P1(O)OC2=C(C3=CC(COC)=CC=C3)C=C4C(CCCC4)=C2C5=C(O1)C(C6=CC=CC(COC)=C6)=CC7=C5CCCC7
 OpenBabel09032010383D

 80 86  0  0  0  0  0  0  0  0999 V2000
    0.9038    1.9177    2.5151 O   0  0  0  0  0  0  0  0  0  0  0  0
    0.1179    1.3974    1.3521 P   0  0  0  0  0  0  0  0  0  0  0  0
   -0.8474    2.5346    0.7445 O   0  0  0  0  0  0  0  0  0  0  0  0
   -0.9026    0.2047    1.7120 O   0  0  0  0  0  0  0  0  0  0  0  0
   -1.5439   -0.4623    0.6917 C   0  0  0  0  0  0  0  0  0  0  0  0
   -2.9386   -0.2894    0.5986 C   0  0  0  0  0  0  0  0  0  0  0  0
   -3.6816    0.6159    1.4930 C   0  0  0  0  0  0  0  0  0  0  0  0
   -4.3600    1.7324    0.9715 C   0  0  0  0  0  0  0  0  0  0  0  0
   -5.0503    2.6246    1.8062 C   0  0  0  0  0  0  0  0  0  0  0  0
   -5.7754    3.8146    1.2291 C   0  0  0  0  0  0  0  0  0  0  0  0
   -5.3022    5.0380    1.7920 O   0  0  0  0  0  0  0  0  0  0  0  0
   -4.1035    5.4947    1.1778 C   0  0  0  0  0  0  0  0  0  0  0  0
   -5.0618    2.3898    3.1863 C   0  0  0  0  0  0  0  0  0  0  0  0
   -4.4003    1.2855    3.7202 C   0  0  0  0  0  0  0  0  0  0  0  0
   -3.7178    0.4051    2.8792 C   0  0  0  0  0  0  0  0  0  0  0  0
   -3.6130   -0.9897   -0.4033 C   0  0  0  0  0  0  0  0  0  0  0  0
   -2.9236   -1.7869   -1.3261 C   0  0  0  0  0  0  0  0  0  0  0  0
   -1.5176   -1.9373   -1.2209 C   0  0  0  0  0  0  0  0  0  0  0  0
   -0.7789   -2.5879   -2.3844 C   0  0  0  0  0  0  0  0  0  0  0  0
   -1.6296   -3.5707   -3.1838 C   0  0  0  0  0  0  0  0  0  0  0  0
   -2.9266   -2.9051   -3.6100 C   0  0  0  0  0  0  0  0  0  0  0  0
   -3.7349   -2.4992   -2.3850 C   0  0  0  0  0  0  0  0  0  0  0  0
   -0.7909   -1.3105   -0.1561 C   0  0  0  0  0  0  0  0  0  0  0  0
    0.6221   -1.4913    0.0714 C   0  0  0  0  0  0  0  0  0  0  0  0
    1.4988   -0.3770    0.1436 C   0  0  0  0  0  0  0  0  0  0  0  0
    0.9641    0.8918    0.0759 O   0  0  0  0  0  0  0  0  0  0  0  0
    2.9011   -0.4884    0.2280 C   0  0  0  0  0  0  0  0  0  0  0  0
    3.7897    0.6812    0.2109 C   0  0  0  0  0  0  0  0  0  0  0  0
    4.0371    1.4173    1.3771 C   0  0  0  0  0  0  0  0  0  0  0  0
    4.9112    2.5051    1.3612 C   0  0  0  0  0  0  0  0  0  0  0  0
    5.5523    2.8699    0.1782 C   0  0  0  0  0  0  0  0  0  0  0  0
    5.3134    2.1629   -1.0071 C   0  0  0  0  0  0  0  0  0  0  0  0
    6.0293    2.5247   -2.2866 C   0  0  0  0  0  0  0  0  0  0  0  0
    6.1842    3.9358   -2.4537 O   0  0  0  0  0  0  0  0  0  0  0  0
    5.0026    4.5579   -2.9431 C   0  0  0  0  0  0  0  0  0  0  0  0
    4.4375    1.0655   -0.9755 C   0  0  0  0  0  0  0  0  0  0  0  0
    3.4565   -1.7682    0.3164 C   0  0  0  0  0  0  0  0  0  0  0  0
    2.6378   -2.8965    0.3603 C   0  0  0  0  0  0  0  0  0  0  0  0
    1.2333   -2.7649    0.2559 C   0  0  0  0  0  0  0  0  0  0  0  0
    0.4380   -4.0502    0.4295 C   0  0  0  0  0  0  0  0  0  0  0  0
    0.9831   -4.8605    1.6075 C   0  0  0  0  0  0  0  0  0  0  0  0
    2.4941   -5.1091    1.5429 C   0  0  0  0  0  0  0  0  0  0  0  0
    3.2278   -4.2771    0.4909 C   0  0  0  0  0  0  0  0  0  0  0  0
   -1.2778    3.0171    1.4739 H   0  0  0  0  0  0  0  0  0  0  0  0
   -4.3321    1.9158   -0.1020 H   0  0  0  0  0  0  0  0  0  0  0  0
   -5.7123    3.8466    0.1346 H   0  0  0  0  0  0  0  0  0  0  0  0
   -6.8384    3.7245    1.4810 H   0  0  0  0  0  0  0  0  0  0  0  0
   -3.2905    4.7772    1.3225 H   0  0  0  0  0  0  0  0  0  0  0  0
   -3.8172    6.4391    1.6486 H   0  0  0  0  0  0  0  0  0  0  0  0
   -4.2633    5.6743    0.1103 H   0  0  0  0  0  0  0  0  0  0  0  0
   -5.5865    3.0753    3.8497 H   0  0  0  0  0  0  0  0  0  0  0  0
   -4.4135    1.1103    4.7930 H   0  0  0  0  0  0  0  0  0  0  0  0
   -3.2049   -0.4510    3.3142 H   0  0  0  0  0  0  0  0  0  0  0  0
   -4.6955   -0.8942   -0.4835 H   0  0  0  0  0  0  0  0  0  0  0  0
   -0.4481   -1.7786   -3.0491 H   0  0  0  0  0  0  0  0  0  0  0  0
    0.1210   -3.1149   -2.0711 H   0  0  0  0  0  0  0  0  0  0  0  0
   -1.8451   -4.4612   -2.5802 H   0  0  0  0  0  0  0  0  0  0  0  0
   -1.0733   -3.9042   -4.0670 H   0  0  0  0  0  0  0  0  0  0  0  0
   -3.5163   -3.5859   -4.2339 H   0  0  0  0  0  0  0  0  0  0  0  0
   -2.7041   -2.0209   -4.2207 H   0  0  0  0  0  0  0  0  0  0  0  0
   -4.5655   -1.8625   -2.7134 H   0  0  0  0  0  0  0  0  0  0  0  0
   -4.1715   -3.3948   -1.9249 H   0  0  0  0  0  0  0  0  0  0  0  0
    3.5484    1.1459    2.3112 H   0  0  0  0  0  0  0  0  0  0  0  0
    5.0926    3.0664    2.2741 H   0  0  0  0  0  0  0  0  0  0  0  0
    6.2386    3.7149    0.1796 H   0  0  0  0  0  0  0  0  0  0  0  0
    7.0346    2.0908   -2.2440 H   0  0  0  0  0  0  0  0  0  0  0  0
    5.5285    2.0992   -3.1648 H   0  0  0  0  0  0  0  0  0  0  0  0
    4.7401    4.1594   -3.9279 H   0  0  0  0  0  0  0  0  0  0  0  0
    5.1978    5.6290   -3.0445 H   0  0  0  0  0  0  0  0  0  0  0  0
    4.1689    4.4231   -2.2479 H   0  0  0  0  0  0  0  0  0  0  0  0
    4.2542    0.4963   -1.8853 H   0  0  0  0  0  0  0  0  0  0  0  0
    4.5377   -1.8794    0.3822 H   0  0  0  0  0  0  0  0  0  0  0  0
    0.5010   -4.6451   -0.4889 H   0  0  0  0  0  0  0  0  0  0  0  0
   -0.6198   -3.8502    0.6242 H   0  0  0  0  0  0  0  0  0  0  0  0
    0.4529   -5.8175    1.6779 H   0  0  0  0  0  0  0  0  0  0  0  0
    0.7611   -4.3215    2.5386 H   0  0  0  0  0  0  0  0  0  0  0  0
    2.9186   -4.8966    2.5329 H   0  0  0  0  0  0  0  0  0  0  0  0
    2.6905   -6.1720    1.3569 H   0  0  0  0  0  0  0  0  0  0  0  0
    4.2926   -4.2304    0.7479 H   0  0  0  0  0  0  0  0  0  0  0  0
    3.1613   -4.7697   -0.4875 H   0  0  0  0  0  0  0  0  0  0  0  0
  2  4  1  0  0  0  0
  2  1  2  0  0  0  0
  3  2  1  0  0  0  0
  3 44  1  0  0  0  0
  5  4  1  0  0  0  0
  6  5  1  0  0  0  0
  6  7  1  0  0  0  0
  7 15  1  0  0  0  0
  8  7  2  0  0  0  0
  8  9  1  0  0  0  0
  9 13  2  0  0  0  0
 10 47  1  0  0  0  0
 10 11  1  0  0  0  0
 10  9  1  0  0  0  0
 12 48  1  0  0  0  0
 12 49  1  0  0  0  0
 12 11  1  0  0  0  0
 13 14  1  0  0  0  0
 13 51  1  0  0  0  0
 14 52  1  0  0  0  0
 15 53  1  0  0  0  0
 15 14  2  0  0  0  0
 16  6  2  0  0  0  0
 17 18  2  0  0  0  0
 17 16  1  0  0  0  0
 18 23  1  0  0  0  0
 19 56  1  0  0  0  0
 19 18  1  0  0  0  0
 20 57  1  0  0  0  0
 20 19  1  0  0  0  0
 21 20  1  0  0  0  0
 21 22  1  0  0  0  0
 22 62  1  0  0  0  0
 22 17  1  0  0  0  0
 23 24  1  0  0  0  0
 23  5  2  0  0  0  0
 24 25  2  0  0  0  0
 24 39  1  0  0  0  0
 25 27  1  0  0  0  0
 26 25  1  0  0  0  0
 26  2  1  0  0  0  0
 27 37  2  0  0  0  0
 28 27  1  0  0  0  0
 28 29  2  0  0  0  0
 29 63  1  0  0  0  0
 30 29  1  0  0  0  0
 30 64  1  0  0  0  0
 31 65  1  0  0  0  0
 31 30  2  0  0  0  0
 32 36  2  0  0  0  0
 32 31  1  0  0  0  0
 33 66  1  0  0  0  0
 33 32  1  0  0  0  0
 34 33  1  0  0  0  0
 35 34  1  0  0  0  0
 35 70  1  0  0  0  0
 36 28  1  0  0  0  0
 37 38  1  0  0  0  0
 37 72  1  0  0  0  0
 38 43  1  0  0  0  0
 39 38  2  0  0  0  0
 39 40  1  0  0  0  0
 40 74  1  0  0  0  0
 40 41  1  0  0  0  0
 41 75  1  0  0  0  0
 41 76  1  0  0  0  0
 42 41  1  0  0  0  0
 42 77  1  0  0  0  0
 43 79  1  0  0  0  0
 43 42  1  0  0  0  0
 45  8  1  0  0  0  0
 46 10  1  0  0  0  0
 50 12  1  0  0  0  0
 54 16  1  0  0  0  0
 55 19  1  0  0  0  0
 58 20  1  0  0  0  0
 59 21  1  0  0  0  0
 60 21  1  0  0  0  0
 61 22  1  0  0  0  0
 67 33  1  0  0  0  0
 68 35  1  0  0  0  0
 69 35  1  0  0  0  0
 71 36  1  0  0  0  0
 73 40  1  0  0  0  0
 78 42  1  0  0  0  0
 80 43  1  0  0  0  0
M  END
$$$$
