O=P1(O)OC2=C(CC3=CC=C(C(F)(F)F)C=C3C(F)(F)F)C=C4C(C=CC=C4)=C2C5=C(O1)C(CC6=C(C(F)(F)F)C=C(C(F)(F)F)C=C6)=CC7=C5C=CC=C7
 OpenBabel09032010373D

 76 82  0  0  0  0  0  0  0  0999 V2000
    0.1208    1.4251    2.0659 O   0  0  0  0  0  0  0  0  0  0  0  0
    0.8333    0.5278    1.1043 P   0  0  0  0  0  0  0  0  0  0  0  0
    2.2294   -0.0223    1.6801 O   0  0  0  0  0  0  0  0  0  0  0  0
    1.2332    1.1995   -0.3045 O   0  0  0  0  0  0  0  0  0  0  0  0
    1.6054    0.4288   -1.3792 C   0  0  0  0  0  0  0  0  0  0  0  0
    2.8731    0.7004   -1.9226 C   0  0  0  0  0  0  0  0  0  0  0  0
    3.7847    1.7778   -1.3599 C   0  0  0  0  0  0  0  0  0  0  0  0
    4.5359    1.3671   -0.1029 C   0  0  0  0  0  0  0  0  0  0  0  0
    5.3094    0.1899   -0.1268 C   0  0  0  0  0  0  0  0  0  0  0  0
    5.9807   -0.2587    1.0107 C   0  0  0  0  0  0  0  0  0  0  0  0
    5.9180    0.4671    2.2035 C   0  0  0  0  0  0  0  0  0  0  0  0
    6.5897   -0.0568    3.4498 C   0  0  0  0  0  0  0  0  0  0  0  0
    5.8231   -0.9773    4.0956 F   0  0  0  0  0  0  0  0  0  0  0  0
    6.8687    0.9137    4.3628 F   0  0  0  0  0  0  0  0  0  0  0  0
    7.7765   -0.6739    3.1896 F   0  0  0  0  0  0  0  0  0  0  0  0
    5.1838    1.6624    2.2267 C   0  0  0  0  0  0  0  0  0  0  0  0
    4.5015    2.1360    1.0853 C   0  0  0  0  0  0  0  0  0  0  0  0
    3.7484    3.4500    1.1813 C   0  0  0  0  0  0  0  0  0  0  0  0
    4.1496    4.3411    0.2304 F   0  0  0  0  0  0  0  0  0  0  0  0
    3.9185    4.0900    2.3719 F   0  0  0  0  0  0  0  0  0  0  0  0
    2.4074    3.3057    1.0217 F   0  0  0  0  0  0  0  0  0  0  0  0
    3.3002   -0.0446   -3.0238 C   0  0  0  0  0  0  0  0  0  0  0  0
    2.5117   -1.0667   -3.5537 C   0  0  0  0  0  0  0  0  0  0  0  0
    1.2219   -1.3210   -3.0170 C   0  0  0  0  0  0  0  0  0  0  0  0
    0.5295   -2.4345   -3.5580 C   0  0  0  0  0  0  0  0  0  0  0  0
    1.0437   -3.2058   -4.6039 C   0  0  0  0  0  0  0  0  0  0  0  0
    2.2840   -2.9014   -5.1400 C   0  0  0  0  0  0  0  0  0  0  0  0
    3.0154   -1.8412   -4.6131 C   0  0  0  0  0  0  0  0  0  0  0  0
    0.6984   -0.5009   -1.9524 C   0  0  0  0  0  0  0  0  0  0  0  0
   -0.6803   -0.5738   -1.5031 C   0  0  0  0  0  0  0  0  0  0  0  0
   -0.9780   -0.7656   -0.1322 C   0  0  0  0  0  0  0  0  0  0  0  0
    0.0645   -0.8438    0.7577 O   0  0  0  0  0  0  0  0  0  0  0  0
   -2.2735   -0.9596    0.3716 C   0  0  0  0  0  0  0  0  0  0  0  0
   -2.5348   -1.2252    1.8431 C   0  0  0  0  0  0  0  0  0  0  0  0
   -3.5982   -0.3332    2.4699 C   0  0  0  0  0  0  0  0  0  0  0  0
   -4.8292   -0.8308    2.9563 C   0  0  0  0  0  0  0  0  0  0  0  0
   -5.1876   -2.3007    2.8847 C   0  0  0  0  0  0  0  0  0  0  0  0
   -5.1896   -2.7774    1.6090 F   0  0  0  0  0  0  0  0  0  0  0  0
   -6.4248   -2.5846    3.3819 F   0  0  0  0  0  0  0  0  0  0  0  0
   -4.3227   -3.0871    3.5828 F   0  0  0  0  0  0  0  0  0  0  0  0
   -5.7526    0.0707    3.5289 C   0  0  0  0  0  0  0  0  0  0  0  0
   -5.4754    1.4434    3.6350 C   0  0  0  0  0  0  0  0  0  0  0  0
   -6.4879    2.3925    4.2281 C   0  0  0  0  0  0  0  0  0  0  0  0
   -7.2870    1.8006    5.1602 F   0  0  0  0  0  0  0  0  0  0  0  0
   -7.3295    2.9037    3.2880 F   0  0  0  0  0  0  0  0  0  0  0  0
   -5.9245    3.4641    4.8515 F   0  0  0  0  0  0  0  0  0  0  0  0
   -4.2563    1.9200    3.1465 C   0  0  0  0  0  0  0  0  0  0  0  0
   -3.3310    1.0443    2.5776 C   0  0  0  0  0  0  0  0  0  0  0  0
   -3.3333   -0.9580   -0.5376 C   0  0  0  0  0  0  0  0  0  0  0  0
   -3.1283   -0.6998   -1.8956 C   0  0  0  0  0  0  0  0  0  0  0  0
   -1.8155   -0.4772   -2.3890 C   0  0  0  0  0  0  0  0  0  0  0  0
   -1.7161   -0.1191   -3.7585 C   0  0  0  0  0  0  0  0  0  0  0  0
   -2.8270   -0.0582   -4.6042 C   0  0  0  0  0  0  0  0  0  0  0  0
   -4.0888   -0.3349   -4.1049 C   0  0  0  0  0  0  0  0  0  0  0  0
   -4.2381   -0.6458   -2.7567 C   0  0  0  0  0  0  0  0  0  0  0  0
    2.6756   -0.6309    1.0654 H   0  0  0  0  0  0  0  0  0  0  0  0
    3.1809    2.6776   -1.2064 H   0  0  0  0  0  0  0  0  0  0  0  0
    4.5299    2.0697   -2.1124 H   0  0  0  0  0  0  0  0  0  0  0  0
    5.3909   -0.4011   -1.0380 H   0  0  0  0  0  0  0  0  0  0  0  0
    6.5540   -1.1845    0.9631 H   0  0  0  0  0  0  0  0  0  0  0  0
    5.1320    2.2325    3.1571 H   0  0  0  0  0  0  0  0  0  0  0  0
    4.2789    0.1589   -3.4573 H   0  0  0  0  0  0  0  0  0  0  0  0
   -0.4390   -2.7312   -3.1577 H   0  0  0  0  0  0  0  0  0  0  0  0
    0.4701   -4.0433   -4.9924 H   0  0  0  0  0  0  0  0  0  0  0  0
    2.6891   -3.4948   -5.9555 H   0  0  0  0  0  0  0  0  0  0  0  0
    3.9961   -1.6306   -5.0362 H   0  0  0  0  0  0  0  0  0  0  0  0
   -1.6242   -1.0926    2.4400 H   0  0  0  0  0  0  0  0  0  0  0  0
   -2.7831   -2.2865    1.9430 H   0  0  0  0  0  0  0  0  0  0  0  0
   -6.7077   -0.3035    3.9037 H   0  0  0  0  0  0  0  0  0  0  0  0
   -4.0120    2.9800    3.2093 H   0  0  0  0  0  0  0  0  0  0  0  0
   -2.3861    1.4511    2.2168 H   0  0  0  0  0  0  0  0  0  0  0  0
   -4.3455   -1.1347   -0.1768 H   0  0  0  0  0  0  0  0  0  0  0  0
   -0.7520    0.1351   -4.1953 H   0  0  0  0  0  0  0  0  0  0  0  0
   -2.6996    0.2105   -5.6496 H   0  0  0  0  0  0  0  0  0  0  0  0
   -4.9576   -0.2897   -4.7559 H   0  0  0  0  0  0  0  0  0  0  0  0
   -5.2409   -0.8341   -2.3776 H   0  0  0  0  0  0  0  0  0  0  0  0
  2  3  1  0  0  0  0
  2  1  2  0  0  0  0
  4  2  1  0  0  0  0
  5  4  1  0  0  0  0
  6  5  2  0  0  0  0
  6  7  1  0  0  0  0
  7 57  1  0  0  0  0
  7  8  1  0  0  0  0
  8 17  1  0  0  0  0
  9  8  2  0  0  0  0
  9 10  1  0  0  0  0
 10 11  2  0  0  0  0
 11 16  1  0  0  0  0
 11 12  1  0  0  0  0
 12 13  1  0  0  0  0
 12 14  1  0  0  0  0
 15 12  1  0  0  0  0
 16 61  1  0  0  0  0
 17 18  1  0  0  0  0
 17 16  2  0  0  0  0
 18 20  1  0  0  0  0
 19 18  1  0  0  0  0
 21 18  1  0  0  0  0
 22  6  1  0  0  0  0
 23 22  2  0  0  0  0
 23 24  1  0  0  0  0
 24 29  2  0  0  0  0
 25 63  1  0  0  0  0
 25 24  1  0  0  0  0
 26 25  2  0  0  0  0
 27 28  2  0  0  0  0
 27 26  1  0  0  0  0
 28 23  1  0  0  0  0
 29 30  1  0  0  0  0
 29  5  1  0  0  0  0
 30 31  2  0  0  0  0
 31 33  1  0  0  0  0
 31 32  1  0  0  0  0
 32  2  1  0  0  0  0
 33 34  1  0  0  0  0
 34 68  1  0  0  0  0
 34 67  1  0  0  0  0
 34 35  1  0  0  0  0
 35 48  2  0  0  0  0
 35 36  1  0  0  0  0
 36 41  2  0  0  0  0
 37 36  1  0  0  0  0
 37 39  1  0  0  0  0
 37 40  1  0  0  0  0
 38 37  1  0  0  0  0
 41 42  1  0  0  0  0
 41 69  1  0  0  0  0
 42 43  1  0  0  0  0
 43 46  1  0  0  0  0
 43 44  1  0  0  0  0
 45 43  1  0  0  0  0
 47 70  1  0  0  0  0
 47 42  2  0  0  0  0
 48 47  1  0  0  0  0
 49 72  1  0  0  0  0
 49 33  2  0  0  0  0
 50 49  1  0  0  0  0
 51 50  1  0  0  0  0
 51 30  1  0  0  0  0
 52 51  2  0  0  0  0
 53 54  2  0  0  0  0
 53 52  1  0  0  0  0
 54 55  1  0  0  0  0
 55 76  1  0  0  0  0
 55 50  2  0  0  0  0
 56  3  1  0  0  0  0
 58  7  1  0  0  0  0
 59  9  1  0  0  0  0
 60 10  1  0  0  0  0
 62 22  1  0  0  0  0
 64 26  1  0  0  0  0
 65 27  1  0  0  0  0
 66 28  1  0  0  0  0
 71 48  1  0  0  0  0
 73 52  1  0  0  0  0
 74 53  1  0  0  0  0
 75 54  1  0  0  0  0
M  END
$$$$
