O=P1(O)OC2=C(C3=C(C(C)C)C=C(C(C)C)C=C3C(C)C)C=C4C(C=CC=C4)=C2C5=C(O1)[C@@]([C@@]6=C(C(C)C)C=C(C(C)C)C=C6C(C)C)=CC7=C5C=CC=C7
 OpenBabel09032010383D

112118  0  0  0  0  0  0  0  0999 V2000
    0.6109   -2.3571   -0.2980 O   0  0  0  0  0  0  0  0  0  0  0  0
    0.0039   -1.0746    0.1748 P   0  0  0  0  0  0  0  0  0  0  0  0
   -0.8601   -1.3061    1.5098 O   0  0  0  0  0  0  0  0  0  0  0  0
    1.0201    0.1011    0.5895 O   0  0  0  0  0  0  0  0  0  0  0  0
    1.5928    0.8311   -0.4253 C   0  0  0  0  0  0  0  0  0  0  0  0
    2.9866    0.7207   -0.5850 C   0  0  0  0  0  0  0  0  0  0  0  0
    3.8328   -0.1062    0.3056 C   0  0  0  0  0  0  0  0  0  0  0  0
    4.2233    0.3929    1.5820 C   0  0  0  0  0  0  0  0  0  0  0  0
    3.7733    1.7615    2.1011 C   0  0  0  0  0  0  0  0  0  0  0  0
    4.9668    2.6880    2.3608 C   0  0  0  0  0  0  0  0  0  0  0  0
    2.9023    1.6280    3.3546 C   0  0  0  0  0  0  0  0  0  0  0  0
    5.0614   -0.3894    2.4028 C   0  0  0  0  0  0  0  0  0  0  0  0
    5.5420   -1.6359    1.9954 C   0  0  0  0  0  0  0  0  0  0  0  0
    6.4554   -2.4683    2.8776 C   0  0  0  0  0  0  0  0  0  0  0  0
    7.7786   -1.7499    3.1539 C   0  0  0  0  0  0  0  0  0  0  0  0
    5.7658   -2.8648    4.1855 C   0  0  0  0  0  0  0  0  0  0  0  0
    5.1621   -2.1130    0.7380 C   0  0  0  0  0  0  0  0  0  0  0  0
    4.3035   -1.3853   -0.1123 C   0  0  0  0  0  0  0  0  0  0  0  0
    3.9331   -1.9882   -1.4709 C   0  0  0  0  0  0  0  0  0  0  0  0
    5.0694   -1.7865   -2.4789 C   0  0  0  0  0  0  0  0  0  0  0  0
    3.5682   -3.4790   -1.4004 C   0  0  0  0  0  0  0  0  0  0  0  0
    3.5904    1.4730   -1.5953 C   0  0  0  0  0  0  0  0  0  0  0  0
    2.8374    2.2670   -2.4621 C   0  0  0  0  0  0  0  0  0  0  0  0
    1.4342    2.3830   -2.2818 C   0  0  0  0  0  0  0  0  0  0  0  0
    0.7383    3.1402   -3.2587 C   0  0  0  0  0  0  0  0  0  0  0  0
    1.3891    3.7937   -4.3084 C   0  0  0  0  0  0  0  0  0  0  0  0
    2.7658    3.7004   -4.4295 C   0  0  0  0  0  0  0  0  0  0  0  0
    3.4843    2.9371   -3.5141 C   0  0  0  0  0  0  0  0  0  0  0  0
    0.7841    1.7169   -1.1805 C   0  0  0  0  0  0  0  0  0  0  0  0
   -0.6003    1.9470   -0.8091 C   0  0  0  0  0  0  0  0  0  0  0  0
   -1.5006    0.8632   -0.6513 C   0  0  0  0  0  0  0  0  0  0  0  0
   -1.0555   -0.4239   -0.8426 O   0  0  0  0  0  0  0  0  0  0  0  0
   -2.8852    1.0206   -0.4418 C   0  0  0  0  0  0  0  0  0  0  0  0
   -3.8132   -0.1307   -0.3400 C   0  0  0  0  0  0  0  0  0  0  0  0
   -4.3122   -0.5541    0.9291 C   0  0  0  0  0  0  0  0  0  0  0  0
   -3.9313    0.1499    2.2368 C   0  0  0  0  0  0  0  0  0  0  0  0
   -5.0392    1.1163    2.6705 C   0  0  0  0  0  0  0  0  0  0  0  0
   -3.6205   -0.8166    3.3904 C   0  0  0  0  0  0  0  0  0  0  0  0
   -5.2206   -1.6313    0.9859 C   0  0  0  0  0  0  0  0  0  0  0  0
   -5.6295   -2.3187   -0.1601 C   0  0  0  0  0  0  0  0  0  0  0  0
   -6.6016   -3.4834   -0.0905 C   0  0  0  0  0  0  0  0  0  0  0  0
   -6.0444   -4.6346    0.7511 C   0  0  0  0  0  0  0  0  0  0  0  0
   -7.9715   -3.0402    0.4292 C   0  0  0  0  0  0  0  0  0  0  0  0
   -5.1324   -1.8996   -1.3962 C   0  0  0  0  0  0  0  0  0  0  0  0
   -4.2409   -0.8134   -1.5149 C   0  0  0  0  0  0  0  0  0  0  0  0
   -3.7869   -0.3984   -2.9176 C   0  0  0  0  0  0  0  0  0  0  0  0
   -3.0222   -1.5230   -3.6241 C   0  0  0  0  0  0  0  0  0  0  0  0
   -4.9694    0.0761   -3.7699 C   0  0  0  0  0  0  0  0  0  0  0  0
   -3.3912    2.3194   -0.3628 C   0  0  0  0  0  0  0  0  0  0  0  0
   -2.5508    3.4326   -0.4066 C   0  0  0  0  0  0  0  0  0  0  0  0
   -1.1541    3.2634   -0.5986 C   0  0  0  0  0  0  0  0  0  0  0  0
   -0.3691    4.4432   -0.5243 C   0  0  0  0  0  0  0  0  0  0  0  0
   -0.9278    5.7119   -0.3455 C   0  0  0  0  0  0  0  0  0  0  0  0
   -2.2999    5.8481   -0.2155 C   0  0  0  0  0  0  0  0  0  0  0  0
   -3.1049    4.7134   -0.2393 C   0  0  0  0  0  0  0  0  0  0  0  0
   -1.3335   -2.1552    1.4442 H   0  0  0  0  0  0  0  0  0  0  0  0
    3.1601    2.2720    1.3535 H   0  0  0  0  0  0  0  0  0  0  0  0
    5.6056    2.3243    3.1724 H   0  0  0  0  0  0  0  0  0  0  0  0
    4.6203    3.6895    2.6386 H   0  0  0  0  0  0  0  0  0  0  0  0
    5.5874    2.7854    1.4630 H   0  0  0  0  0  0  0  0  0  0  0  0
    3.4596    1.2148    4.2021 H   0  0  0  0  0  0  0  0  0  0  0  0
    2.5164    2.6070    3.6592 H   0  0  0  0  0  0  0  0  0  0  0  0
    2.0440    0.9733    3.1684 H   0  0  0  0  0  0  0  0  0  0  0  0
    5.3513   -0.0105    3.3808 H   0  0  0  0  0  0  0  0  0  0  0  0
    6.6999   -3.3992    2.3489 H   0  0  0  0  0  0  0  0  0  0  0  0
    7.6342   -0.8329    3.7353 H   0  0  0  0  0  0  0  0  0  0  0  0
    8.2783   -1.4764    2.2178 H   0  0  0  0  0  0  0  0  0  0  0  0
    8.4573   -2.3979    3.7191 H   0  0  0  0  0  0  0  0  0  0  0  0
    6.4061   -3.5340    4.7704 H   0  0  0  0  0  0  0  0  0  0  0  0
    5.5379   -1.9940    4.8098 H   0  0  0  0  0  0  0  0  0  0  0  0
    4.8243   -3.3894    3.9881 H   0  0  0  0  0  0  0  0  0  0  0  0
    5.5465   -3.0773    0.4124 H   0  0  0  0  0  0  0  0  0  0  0  0
    3.0405   -1.4863   -1.8596 H   0  0  0  0  0  0  0  0  0  0  0  0
    4.7802   -2.1630   -3.4661 H   0  0  0  0  0  0  0  0  0  0  0  0
    5.3280   -0.7294   -2.5891 H   0  0  0  0  0  0  0  0  0  0  0  0
    5.9787   -2.3158   -2.1721 H   0  0  0  0  0  0  0  0  0  0  0  0
    2.8535   -3.6803   -0.5970 H   0  0  0  0  0  0  0  0  0  0  0  0
    4.4455   -4.1129   -1.2322 H   0  0  0  0  0  0  0  0  0  0  0  0
    3.1154   -3.8024   -2.3444 H   0  0  0  0  0  0  0  0  0  0  0  0
    4.6716    1.4138   -1.7148 H   0  0  0  0  0  0  0  0  0  0  0  0
   -0.3468    3.2223   -3.2225 H   0  0  0  0  0  0  0  0  0  0  0  0
    0.8125    4.3678   -5.0288 H   0  0  0  0  0  0  0  0  0  0  0  0
    3.2798    4.2044   -5.2428 H   0  0  0  0  0  0  0  0  0  0  0  0
    4.5626    2.8558   -3.6392 H   0  0  0  0  0  0  0  0  0  0  0  0
   -3.0135    0.7279    2.0849 H   0  0  0  0  0  0  0  0  0  0  0  0
   -5.9693    0.5846    2.9017 H   0  0  0  0  0  0  0  0  0  0  0  0
   -4.7389    1.6694    3.5671 H   0  0  0  0  0  0  0  0  0  0  0  0
   -5.2675    1.8477    1.8900 H   0  0  0  0  0  0  0  0  0  0  0  0
   -2.9213   -1.5995    3.0842 H   0  0  0  0  0  0  0  0  0  0  0  0
   -3.1698   -0.2723    4.2280 H   0  0  0  0  0  0  0  0  0  0  0  0
   -4.5212   -1.3069    3.7749 H   0  0  0  0  0  0  0  0  0  0  0  0
   -5.6302   -1.9363    1.9463 H   0  0  0  0  0  0  0  0  0  0  0  0
   -6.7531   -3.8741   -1.1056 H   0  0  0  0  0  0  0  0  0  0  0  0
   -6.7189   -5.4970    0.7172 H   0  0  0  0  0  0  0  0  0  0  0  0
   -5.9197   -4.3522    1.8021 H   0  0  0  0  0  0  0  0  0  0  0  0
   -5.0677   -4.9577    0.3740 H   0  0  0  0  0  0  0  0  0  0  0  0
   -8.6835   -3.8719    0.3951 H   0  0  0  0  0  0  0  0  0  0  0  0
   -7.9225   -2.6870    1.4650 H   0  0  0  0  0  0  0  0  0  0  0  0
   -8.3772   -2.2262   -0.1819 H   0  0  0  0  0  0  0  0  0  0  0  0
   -5.4568   -2.4225   -2.2945 H   0  0  0  0  0  0  0  0  0  0  0  0
   -3.1002    0.4507   -2.8619 H   0  0  0  0  0  0  0  0  0  0  0  0
   -2.6229   -1.1711   -4.5817 H   0  0  0  0  0  0  0  0  0  0  0  0
   -3.6595   -2.3890   -3.8322 H   0  0  0  0  0  0  0  0  0  0  0  0
   -2.1787   -1.8676   -3.0163 H   0  0  0  0  0  0  0  0  0  0  0  0
   -5.5095    0.8880   -3.2701 H   0  0  0  0  0  0  0  0  0  0  0  0
   -4.6182    0.4530   -4.7367 H   0  0  0  0  0  0  0  0  0  0  0  0
   -5.6847   -0.7287   -3.9699 H   0  0  0  0  0  0  0  0  0  0  0  0
   -4.4645    2.4555   -0.2374 H   0  0  0  0  0  0  0  0  0  0  0  0
    0.7161    4.3889   -0.5931 H   0  0  0  0  0  0  0  0  0  0  0  0
   -0.2831    6.5857   -0.3038 H   0  0  0  0  0  0  0  0  0  0  0  0
   -2.7430    6.8303   -0.0765 H   0  0  0  0  0  0  0  0  0  0  0  0
   -4.1785    4.8369   -0.1075 H   0  0  0  0  0  0  0  0  0  0  0  0
  1  2  2  0  0  0  0
  2  4  1  0  0  0  0
  2  3  1  0  0  0  0
  5  4  1  0  0  0  0
  6  5  1  0  0  0  0
  6  7  1  0  0  0  0
  7  8  1  0  0  0  0
  8  9  1  0  0  0  0
  8 12  2  0  0  0  0
  9 10  1  0  0  0  0
  9 11  1  0  0  0  0
 10 59  1  0  0  0  0
 10 58  1  0  0  0  0
 11 62  1  0  0  0  0
 11 61  1  0  0  0  0
 12 64  1  0  0  0  0
 13 12  1  0  0  0  0
 13 14  1  0  0  0  0
 14 15  1  0  0  0  0
 14 16  1  0  0  0  0
 15 68  1  0  0  0  0
 15 66  1  0  0  0  0
 16 69  1  0  0  0  0
 16 70  1  0  0  0  0
 17 13  2  0  0  0  0
 18  7  2  0  0  0  0
 18 17  1  0  0  0  0
 19 21  1  0  0  0  0
 19 18  1  0  0  0  0
 20 76  1  0  0  0  0
 20 19  1  0  0  0  0
 21 78  1  0  0  0  0
 21 77  1  0  0  0  0
 22  6  2  0  0  0  0
 23 24  1  0  0  0  0
 23 22  1  0  0  0  0
 24 29  1  0  0  0  0
 25 81  1  0  0  0  0
 25 24  2  0  0  0  0
 26 25  1  0  0  0  0
 27 26  2  0  0  0  0
 27 28  1  0  0  0  0
 28 23  2  0  0  0  0
 29 30  1  0  0  0  0
 29  5  2  0  0  0  0
 30 31  2  0  0  0  0
 30 51  1  0  0  0  0
 31 33  1  0  0  0  0
 32 31  1  0  0  0  0
 32  2  1  0  0  0  0
 33 49  2  0  0  0  0
 33 34  1  0  0  0  0
 34 35  2  0  0  0  0
 35 39  1  0  0  0  0
 35 36  1  0  0  0  0
 36 37  1  0  0  0  0
 36 38  1  0  0  0  0
 37 86  1  0  0  0  0
 37 87  1  0  0  0  0
 38 91  1  0  0  0  0
 38 90  1  0  0  0  0
 39 92  1  0  0  0  0
 40 41  1  0  0  0  0
 40 39  2  0  0  0  0
 41 43  1  0  0  0  0
 41 42  1  0  0  0  0
 42 95  1  0  0  0  0
 43 98  1  0  0  0  0
 44 40  1  0  0  0  0
 45 44  2  0  0  0  0
 45 34  1  0  0  0  0
 46101  1  0  0  0  0
 46 45  1  0  0  0  0
 47104  1  0  0  0  0
 47 46  1  0  0  0  0
 48105  1  0  0  0  0
 48 46  1  0  0  0  0
 49108  1  0  0  0  0
 50 49  1  0  0  0  0
 50 55  2  0  0  0  0
 51 52  2  0  0  0  0
 51 50  1  0  0  0  0
 52 53  1  0  0  0  0
 53110  1  0  0  0  0
 53 54  2  0  0  0  0
 54111  1  0  0  0  0
 55 54  1  0  0  0  0
 55112  1  0  0  0  0
 56  3  1  0  0  0  0
 57  9  1  0  0  0  0
 60 10  1  0  0  0  0
 63 11  1  0  0  0  0
 65 14  1  0  0  0  0
 67 15  1  0  0  0  0
 71 16  1  0  0  0  0
 72 17  1  0  0  0  0
 73 19  1  0  0  0  0
 74 20  1  0  0  0  0
 75 20  1  0  0  0  0
 79 21  1  0  0  0  0
 80 22  1  0  0  0  0
 82 26  1  0  0  0  0
 83 27  1  0  0  0  0
 84 28  1  0  0  0  0
 85 36  1  0  0  0  0
 88 37  1  0  0  0  0
 89 38  1  0  0  0  0
 93 41  1  0  0  0  0
 94 42  1  0  0  0  0
 96 42  1  0  0  0  0
 97 43  1  0  0  0  0
 99 43  1  0  0  0  0
100 44  1  0  0  0  0
102 47  1  0  0  0  0
103 47  1  0  0  0  0
106 48  1  0  0  0  0
107 48  1  0  0  0  0
109 52  1  0  0  0  0
M  END
$$$$
