O=P1(O)OC2=C(C3=CC(C4=CC(C(F)(F)F)=CC(C(F)(F)F)=C4)=CC(C5=CC(C(F)(F)F)=CC(C(F)(F)F)=C5)=C3)C=C6C(C=CC=C6)=C2C7=C(O1)C(C8=CC(C9=CC(C(F)(F)F)=CC(C(F)(F)F)=C9)=CC(C%10=CC(C(F)(F)F)=CC(C(F)(F)F)=C%10)=C8)=CC%11=C7C=CC=C%11
 OpenBabel09032010373D

122132  0  0  0  0  0  0  0  0999 V2000
    0.3815   -1.0677   -0.6475 O   0  0  0  0  0  0  0  0  0  0  0  0
    0.1795   -0.1442    0.5179 P   0  0  0  0  0  0  0  0  0  0  0  0
   -0.3194   -0.9632    1.8151 O   0  0  0  0  0  0  0  0  0  0  0  0
    1.4973    0.5652    1.0972 O   0  0  0  0  0  0  0  0  0  0  0  0
    1.9081    1.7425    0.5250 C   0  0  0  0  0  0  0  0  0  0  0  0
    3.1167    1.7011   -0.1933 C   0  0  0  0  0  0  0  0  0  0  0  0
    3.8378    0.4421   -0.4170 C   0  0  0  0  0  0  0  0  0  0  0  0
    3.5897   -0.3075   -1.5763 C   0  0  0  0  0  0  0  0  0  0  0  0
    4.2085   -1.5460   -1.8047 C   0  0  0  0  0  0  0  0  0  0  0  0
    3.8884   -2.3398   -3.0058 C   0  0  0  0  0  0  0  0  0  0  0  0
    4.8955   -2.9258   -3.7909 C   0  0  0  0  0  0  0  0  0  0  0  0
    4.5929   -3.6772   -4.9419 C   0  0  0  0  0  0  0  0  0  0  0  0
    5.7112   -4.2779   -5.7626 C   0  0  0  0  0  0  0  0  0  0  0  0
    6.6056   -4.9613   -4.9958 F   0  0  0  0  0  0  0  0  0  0  0  0
    6.4305   -3.3316   -6.4249 F   0  0  0  0  0  0  0  0  0  0  0  0
    5.2797   -5.1554   -6.7097 F   0  0  0  0  0  0  0  0  0  0  0  0
    3.2508   -3.8324   -5.3182 C   0  0  0  0  0  0  0  0  0  0  0  0
    2.2215   -3.2678   -4.5507 C   0  0  0  0  0  0  0  0  0  0  0  0
    0.7783   -3.4075   -4.9673 C   0  0  0  0  0  0  0  0  0  0  0  0
   -0.0817   -3.4305   -3.9101 F   0  0  0  0  0  0  0  0  0  0  0  0
    0.5319   -4.5472   -5.6703 F   0  0  0  0  0  0  0  0  0  0  0  0
    0.3706   -2.3796   -5.7602 F   0  0  0  0  0  0  0  0  0  0  0  0
    2.5543   -2.5283   -3.4046 C   0  0  0  0  0  0  0  0  0  0  0  0
    5.1149   -2.0115   -0.8377 C   0  0  0  0  0  0  0  0  0  0  0  0
    5.4056   -1.2812    0.3307 C   0  0  0  0  0  0  0  0  0  0  0  0
    6.3567   -1.8075    1.3261 C   0  0  0  0  0  0  0  0  0  0  0  0
    7.6323   -2.2517    0.9386 C   0  0  0  0  0  0  0  0  0  0  0  0
    8.5448   -2.7793    1.8676 C   0  0  0  0  0  0  0  0  0  0  0  0
    9.9151   -3.2317    1.4209 C   0  0  0  0  0  0  0  0  0  0  0  0
    9.9554   -3.5975    0.1097 F   0  0  0  0  0  0  0  0  0  0  0  0
   10.8532   -2.2577    1.5708 F   0  0  0  0  0  0  0  0  0  0  0  0
   10.3718   -4.3055    2.1226 F   0  0  0  0  0  0  0  0  0  0  0  0
    8.1753   -2.8460    3.2194 C   0  0  0  0  0  0  0  0  0  0  0  0
    6.9075   -2.4167    3.6392 C   0  0  0  0  0  0  0  0  0  0  0  0
    6.5115   -2.4794    5.0959 C   0  0  0  0  0  0  0  0  0  0  0  0
    7.1700   -3.4482    5.7894 F   0  0  0  0  0  0  0  0  0  0  0  0
    6.7637   -1.3114    5.7457 F   0  0  0  0  0  0  0  0  0  0  0  0
    5.1842   -2.7296    5.2718 F   0  0  0  0  0  0  0  0  0  0  0  0
    6.0150   -1.8941    2.6858 C   0  0  0  0  0  0  0  0  0  0  0  0
    4.7518   -0.0530    0.5235 C   0  0  0  0  0  0  0  0  0  0  0  0
    3.6033    2.8905   -0.7295 C   0  0  0  0  0  0  0  0  0  0  0  0
    2.8945    4.0865   -0.5941 C   0  0  0  0  0  0  0  0  0  0  0  0
    1.6625    4.1135    0.1170 C   0  0  0  0  0  0  0  0  0  0  0  0
    0.9670    5.3498    0.1017 C   0  0  0  0  0  0  0  0  0  0  0  0
    1.4799    6.5005   -0.5044 C   0  0  0  0  0  0  0  0  0  0  0  0
    2.7074    6.4533   -1.1427 C   0  0  0  0  0  0  0  0  0  0  0  0
    3.4052    5.2507   -1.1938 C   0  0  0  0  0  0  0  0  0  0  0  0
    1.1573    2.9189    0.7558 C   0  0  0  0  0  0  0  0  0  0  0  0
   -0.0413    2.8909    1.5838 C   0  0  0  0  0  0  0  0  0  0  0  0
   -1.1196    2.0032    1.2953 C   0  0  0  0  0  0  0  0  0  0  0  0
   -0.9317    1.0220    0.3294 O   0  0  0  0  0  0  0  0  0  0  0  0
   -2.4256    2.1471    1.8616 C   0  0  0  0  0  0  0  0  0  0  0  0
   -3.6125    1.3721    1.4038 C   0  0  0  0  0  0  0  0  0  0  0  0
   -4.8800    1.9357    1.1496 C   0  0  0  0  0  0  0  0  0  0  0  0
   -5.9330    1.1794    0.5809 C   0  0  0  0  0  0  0  0  0  0  0  0
   -7.3069    1.7014    0.4138 C   0  0  0  0  0  0  0  0  0  0  0  0
   -8.4008    0.8585    0.6964 C   0  0  0  0  0  0  0  0  0  0  0  0
   -9.7285    1.2529    0.4871 C   0  0  0  0  0  0  0  0  0  0  0  0
  -10.8488    0.2818    0.7718 C   0  0  0  0  0  0  0  0  0  0  0  0
  -11.9734    0.5391    0.0483 F   0  0  0  0  0  0  0  0  0  0  0  0
  -10.5139   -1.0096    0.4948 F   0  0  0  0  0  0  0  0  0  0  0  0
  -11.2292    0.3017    2.0780 F   0  0  0  0  0  0  0  0  0  0  0  0
   -9.9763    2.5541    0.0350 C   0  0  0  0  0  0  0  0  0  0  0  0
   -8.9163    3.4404   -0.2228 C   0  0  0  0  0  0  0  0  0  0  0  0
   -9.2016    4.8352   -0.7355 C   0  0  0  0  0  0  0  0  0  0  0  0
   -9.2366    4.8896   -2.0945 F   0  0  0  0  0  0  0  0  0  0  0  0
  -10.3993    5.3264   -0.3093 F   0  0  0  0  0  0  0  0  0  0  0  0
   -8.2658    5.7444   -0.3450 F   0  0  0  0  0  0  0  0  0  0  0  0
   -7.5886    2.9979   -0.0424 C   0  0  0  0  0  0  0  0  0  0  0  0
   -5.6479   -0.1326    0.1501 C   0  0  0  0  0  0  0  0  0  0  0  0
   -4.4168   -0.7199    0.4045 C   0  0  0  0  0  0  0  0  0  0  0  0
   -3.9785   -1.9932   -0.1730 C   0  0  0  0  0  0  0  0  0  0  0  0
   -2.6928   -2.0205   -0.7351 C   0  0  0  0  0  0  0  0  0  0  0  0
   -2.0561   -3.1906   -1.1277 C   0  0  0  0  0  0  0  0  0  0  0  0
   -0.5841   -3.0851   -1.4914 C   0  0  0  0  0  0  0  0  0  0  0  0
   -0.1560   -4.1824   -2.1856 F   0  0  0  0  0  0  0  0  0  0  0  0
    0.2242   -2.9998   -0.4014 F   0  0  0  0  0  0  0  0  0  0  0  0
   -0.2919   -2.0176   -2.2814 F   0  0  0  0  0  0  0  0  0  0  0  0
   -2.8096   -4.3754   -1.1002 C   0  0  0  0  0  0  0  0  0  0  0  0
   -4.1589   -4.3716   -0.6578 C   0  0  0  0  0  0  0  0  0  0  0  0
   -5.0168   -5.6257   -0.7183 C   0  0  0  0  0  0  0  0  0  0  0  0
   -4.3439   -6.7403   -0.3183 F   0  0  0  0  0  0  0  0  0  0  0  0
   -6.1318   -5.5591    0.0622 F   0  0  0  0  0  0  0  0  0  0  0  0
   -5.4561   -5.8840   -1.9798 F   0  0  0  0  0  0  0  0  0  0  0  0
   -4.7199   -3.1730   -0.1711 C   0  0  0  0  0  0  0  0  0  0  0  0
   -3.4832    0.0128    1.1491 C   0  0  0  0  0  0  0  0  0  0  0  0
   -2.5812    3.0980    2.8733 C   0  0  0  0  0  0  0  0  0  0  0  0
   -1.5162    3.8885    3.3143 C   0  0  0  0  0  0  0  0  0  0  0  0
   -0.2463    3.7936    2.6870 C   0  0  0  0  0  0  0  0  0  0  0  0
    0.7853    4.5973    3.2382 C   0  0  0  0  0  0  0  0  0  0  0  0
    0.5704    5.4739    4.3052 C   0  0  0  0  0  0  0  0  0  0  0  0
   -0.6888    5.5699    4.8732 C   0  0  0  0  0  0  0  0  0  0  0  0
   -1.7233    4.7785    4.3826 C   0  0  0  0  0  0  0  0  0  0  0  0
    0.0426   -1.8684    1.7865 H   0  0  0  0  0  0  0  0  0  0  0  0
    2.8807    0.0804   -2.3081 H   0  0  0  0  0  0  0  0  0  0  0  0
    5.9423   -2.7878   -3.5168 H   0  0  0  0  0  0  0  0  0  0  0  0
    3.0023   -4.4002   -6.2169 H   0  0  0  0  0  0  0  0  0  0  0  0
    1.7464   -2.0964   -2.8092 H   0  0  0  0  0  0  0  0  0  0  0  0
    5.5823   -2.9855   -0.9799 H   0  0  0  0  0  0  0  0  0  0  0  0
    7.9288   -2.1808   -0.1091 H   0  0  0  0  0  0  0  0  0  0  0  0
    8.8818   -3.2417    3.9518 H   0  0  0  0  0  0  0  0  0  0  0  0
    5.0289   -1.5620    3.0149 H   0  0  0  0  0  0  0  0  0  0  0  0
    4.9516    0.5319    1.4204 H   0  0  0  0  0  0  0  0  0  0  0  0
    4.5354    2.8746   -1.2934 H   0  0  0  0  0  0  0  0  0  0  0  0
   -0.0158    5.4358    0.5611 H   0  0  0  0  0  0  0  0  0  0  0  0
    0.9112    7.4266   -0.4774 H   0  0  0  0  0  0  0  0  0  0  0  0
    3.1139    7.3417   -1.6179 H   0  0  0  0  0  0  0  0  0  0  0  0
    4.3558    5.2280   -1.7242 H   0  0  0  0  0  0  0  0  0  0  0  0
   -5.0537    2.9813    1.3964 H   0  0  0  0  0  0  0  0  0  0  0  0
   -8.2176   -0.1465    1.0825 H   0  0  0  0  0  0  0  0  0  0  0  0
  -11.0051    2.8830   -0.1223 H   0  0  0  0  0  0  0  0  0  0  0  0
   -6.7710    3.6790   -0.2814 H   0  0  0  0  0  0  0  0  0  0  0  0
   -6.3901   -0.6898   -0.4187 H   0  0  0  0  0  0  0  0  0  0  0  0
   -2.1468   -1.0842   -0.8420 H   0  0  0  0  0  0  0  0  0  0  0  0
   -2.3542   -5.3096   -1.4309 H   0  0  0  0  0  0  0  0  0  0  0  0
   -5.7338   -3.1745    0.2267 H   0  0  0  0  0  0  0  0  0  0  0  0
   -2.5721   -0.4867    1.4594 H   0  0  0  0  0  0  0  0  0  0  0  0
   -3.5529    3.2045    3.3551 H   0  0  0  0  0  0  0  0  0  0  0  0
    1.7987    4.5421    2.8435 H   0  0  0  0  0  0  0  0  0  0  0  0
    1.3924    6.0730    4.6883 H   0  0  0  0  0  0  0  0  0  0  0  0
   -0.8659    6.2481    5.7034 H   0  0  0  0  0  0  0  0  0  0  0  0
   -2.7015    4.8566    4.8543 H   0  0  0  0  0  0  0  0  0  0  0  0
  1  2  2  0  0  0  0
  2  4  1  0  0  0  0
  2  3  1  0  0  0  0
  5 48  1  0  0  0  0
  5  4  1  0  0  0  0
  6  5  2  0  0  0  0
  7  6  1  0  0  0  0
  7 40  2  0  0  0  0
  8  7  1  0  0  0  0
  9  8  2  0  0  0  0
  9 24  1  0  0  0  0
 10  9  1  0  0  0  0
 11 96  1  0  0  0  0
 11 10  2  0  0  0  0
 12 11  1  0  0  0  0
 13 14  1  0  0  0  0
 13 12  1  0  0  0  0
 15 13  1  0  0  0  0
 16 13  1  0  0  0  0
 17 12  2  0  0  0  0
 17 18  1  0  0  0  0
 18 23  2  0  0  0  0
 19 18  1  0  0  0  0
 19 20  1  0  0  0  0
 21 19  1  0  0  0  0
 22 19  1  0  0  0  0
 23 10  1  0  0  0  0
 23 98  1  0  0  0  0
 24 25  2  0  0  0  0
 25 40  1  0  0  0  0
 25 26  1  0  0  0  0
 26 39  1  0  0  0  0
 27 26  2  0  0  0  0
 27 28  1  0  0  0  0
 28 33  2  0  0  0  0
 29 31  1  0  0  0  0
 29 28  1  0  0  0  0
 29 32  1  0  0  0  0
 30 29  1  0  0  0  0
 33 34  1  0  0  0  0
 33101  1  0  0  0  0
 34 35  1  0  0  0  0
 35 38  1  0  0  0  0
 35 37  1  0  0  0  0
 35 36  1  0  0  0  0
 39102  1  0  0  0  0
 39 34  2  0  0  0  0
 40103  1  0  0  0  0
 41 42  2  0  0  0  0
 41  6  1  0  0  0  0
 42 43  1  0  0  0  0
 43 48  2  0  0  0  0
 44 43  1  0  0  0  0
 44105  1  0  0  0  0
 45106  1  0  0  0  0
 45 44  2  0  0  0  0
 46 45  1  0  0  0  0
 47 46  2  0  0  0  0
 47 42  1  0  0  0  0
 48 49  1  0  0  0  0
 49 89  1  0  0  0  0
 50 49  2  0  0  0  0
 50 52  1  0  0  0  0
 51  2  1  0  0  0  0
 51 50  1  0  0  0  0
 52 87  2  0  0  0  0
 53 52  1  0  0  0  0
 54109  1  0  0  0  0
 54 53  1  0  0  0  0
 55 54  2  0  0  0  0
 56 55  1  0  0  0  0
 56 57  2  0  0  0  0
 57110  1  0  0  0  0
 58 57  1  0  0  0  0
 58 59  1  0  0  0  0
 59 62  1  0  0  0  0
 60 59  1  0  0  0  0
 61 59  1  0  0  0  0
 63 58  2  0  0  0  0
 64 69  2  0  0  0  0
 64 63  1  0  0  0  0
 65 68  1  0  0  0  0
 65 67  1  0  0  0  0
 65 64  1  0  0  0  0
 66 65  1  0  0  0  0
 69 56  1  0  0  0  0
 70 71  2  0  0  0  0
 70 55  1  0  0  0  0
 71 86  1  0  0  0  0
 72 85  1  0  0  0  0
 72 71  1  0  0  0  0
 73 72  2  0  0  0  0
 74 79  2  0  0  0  0
 74 73  1  0  0  0  0
 75 74  1  0  0  0  0
 75 77  1  0  0  0  0
 76 75  1  0  0  0  0
 78 75  1  0  0  0  0
 79 80  1  0  0  0  0
 80 85  2  0  0  0  0
 81 80  1  0  0  0  0
 81 82  1  0  0  0  0
 81 83  1  0  0  0  0
 84 81  1  0  0  0  0
 85116  1  0  0  0  0
 86 53  2  0  0  0  0
 86117  1  0  0  0  0
 87 88  1  0  0  0  0
 87118  1  0  0  0  0
 88 93  2  0  0  0  0
 89 90  2  0  0  0  0
 89 88  1  0  0  0  0
 90 91  1  0  0  0  0
 91120  1  0  0  0  0
 91 92  2  0  0  0  0
 92121  1  0  0  0  0
 93122  1  0  0  0  0
 93 92  1  0  0  0  0
 94  3  1  0  0  0  0
 95  8  1  0  0  0  0
 97 17  1  0  0  0  0
 99 24  1  0  0  0  0
100 27  1  0  0  0  0
104 41  1  0  0  0  0
107 46  1  0  0  0  0
108 47  1  0  0  0  0
111 63  1  0  0  0  0
112 69  1  0  0  0  0
113 70  1  0  0  0  0
114 73  1  0  0  0  0
115 79  1  0  0  0  0
119 90  1  0  0  0  0
M  END
$$$$
