O=P1(O)OC2=C(C3=CC=C(C4CCCCC4)C=C3)C=C5C(CCCC5)=C2C6=C(O1)C(C7=CC=C(C8CCCCC8)C=C7)=CC9=C6CCCC9
 OpenBabel09032010383D

 98106  0  0  0  0  0  0  0  0999 V2000
    0.0976    1.7988    1.2181 O   0  0  0  0  0  0  0  0  0  0  0  0
   -0.1678    0.7987    0.1357 P   0  0  0  0  0  0  0  0  0  0  0  0
   -0.7824    1.5058   -1.1736 O   0  0  0  0  0  0  0  0  0  0  0  0
   -1.2742   -0.3125    0.5089 O   0  0  0  0  0  0  0  0  0  0  0  0
   -1.4801   -1.3621   -0.3582 C   0  0  0  0  0  0  0  0  0  0  0  0
   -2.7233   -1.4124   -1.0171 C   0  0  0  0  0  0  0  0  0  0  0  0
   -3.7623   -0.3864   -0.8183 C   0  0  0  0  0  0  0  0  0  0  0  0
   -4.2110    0.3983   -1.8913 C   0  0  0  0  0  0  0  0  0  0  0  0
   -5.1847    1.3856   -1.7066 C   0  0  0  0  0  0  0  0  0  0  0  0
   -5.7409    1.6147   -0.4414 C   0  0  0  0  0  0  0  0  0  0  0  0
   -6.7912    2.6963   -0.2608 C   0  0  0  0  0  0  0  0  0  0  0  0
   -6.2293    3.9059    0.5145 C   0  0  0  0  0  0  0  0  0  0  0  0
   -7.3092    4.7313    1.2208 C   0  0  0  0  0  0  0  0  0  0  0  0
   -8.6439    4.6708    0.4911 C   0  0  0  0  0  0  0  0  0  0  0  0
   -9.1799    3.2409    0.3978 C   0  0  0  0  0  0  0  0  0  0  0  0
   -8.0815    2.1732    0.3872 C   0  0  0  0  0  0  0  0  0  0  0  0
   -5.2939    0.8351    0.6335 C   0  0  0  0  0  0  0  0  0  0  0  0
   -4.3216   -0.1525    0.4457 C   0  0  0  0  0  0  0  0  0  0  0  0
   -2.9453   -2.4735   -1.8976 C   0  0  0  0  0  0  0  0  0  0  0  0
   -1.9462   -3.4182   -2.1689 C   0  0  0  0  0  0  0  0  0  0  0  0
   -0.7007   -3.3431   -1.4971 C   0  0  0  0  0  0  0  0  0  0  0  0
    0.4473   -4.2024   -2.0148 C   0  0  0  0  0  0  0  0  0  0  0  0
   -0.0102   -5.4914   -2.6910 C   0  0  0  0  0  0  0  0  0  0  0  0
   -1.0352   -5.1748   -3.7672 C   0  0  0  0  0  0  0  0  0  0  0  0
   -2.2661   -4.5240   -3.1493 C   0  0  0  0  0  0  0  0  0  0  0  0
   -0.4636   -2.3347   -0.5103 C   0  0  0  0  0  0  0  0  0  0  0  0
    0.7278   -2.2672    0.2942 C   0  0  0  0  0  0  0  0  0  0  0  0
    1.5353   -1.1030    0.2830 C   0  0  0  0  0  0  0  0  0  0  0  0
    1.1091   -0.0059   -0.4334 O   0  0  0  0  0  0  0  0  0  0  0  0
    2.7808   -1.0180    0.9281 C   0  0  0  0  0  0  0  0  0  0  0  0
    3.6384    0.1702    0.8384 C   0  0  0  0  0  0  0  0  0  0  0  0
    4.7399    0.1941   -0.0261 C   0  0  0  0  0  0  0  0  0  0  0  0
    5.5689    1.3199   -0.1100 C   0  0  0  0  0  0  0  0  0  0  0  0
    5.3219    2.4560    0.6681 C   0  0  0  0  0  0  0  0  0  0  0  0
    6.1840    3.7110    0.6136 C   0  0  0  0  0  0  0  0  0  0  0  0
    7.6284    3.4905    1.0998 C   0  0  0  0  0  0  0  0  0  0  0  0
    8.6067    3.0254    0.0238 C   0  0  0  0  0  0  0  0  0  0  0  0
    8.5311    3.8892   -1.2285 C   0  0  0  0  0  0  0  0  0  0  0  0
    7.1147    3.9609   -1.7844 C   0  0  0  0  0  0  0  0  0  0  0  0
    6.1148    4.4459   -0.7377 C   0  0  0  0  0  0  0  0  0  0  0  0
    4.2171    2.4274    1.5351 C   0  0  0  0  0  0  0  0  0  0  0  0
    3.3910    1.3018    1.6217 C   0  0  0  0  0  0  0  0  0  0  0  0
    3.2048   -2.1186    1.6771 C   0  0  0  0  0  0  0  0  0  0  0  0
    2.4055   -3.2618    1.8149 C   0  0  0  0  0  0  0  0  0  0  0  0
    1.1555   -3.3278    1.1559 C   0  0  0  0  0  0  0  0  0  0  0  0
    0.2352   -4.5128    1.4266 C   0  0  0  0  0  0  0  0  0  0  0  0
    0.5952   -5.3036    2.6831 C   0  0  0  0  0  0  0  0  0  0  0  0
    2.0781   -5.6343    2.6749 C   0  0  0  0  0  0  0  0  0  0  0  0
    2.8951   -4.3500    2.7429 C   0  0  0  0  0  0  0  0  0  0  0  0
   -1.4458    2.1697   -0.9121 H   0  0  0  0  0  0  0  0  0  0  0  0
   -3.7913    0.2529   -2.8852 H   0  0  0  0  0  0  0  0  0  0  0  0
   -5.5038    1.9743   -2.5642 H   0  0  0  0  0  0  0  0  0  0  0  0
   -7.0726    3.0551   -1.2618 H   0  0  0  0  0  0  0  0  0  0  0  0
   -5.4891    3.6011    1.2648 H   0  0  0  0  0  0  0  0  0  0  0  0
   -5.6849    4.5468   -0.1917 H   0  0  0  0  0  0  0  0  0  0  0  0
   -6.9741    5.7706    1.3132 H   0  0  0  0  0  0  0  0  0  0  0  0
   -7.4422    4.3545    2.2428 H   0  0  0  0  0  0  0  0  0  0  0  0
   -8.5188    5.0787   -0.5200 H   0  0  0  0  0  0  0  0  0  0  0  0
   -9.3812    5.3071    0.9935 H   0  0  0  0  0  0  0  0  0  0  0  0
   -9.8542    3.0416    1.2396 H   0  0  0  0  0  0  0  0  0  0  0  0
   -9.7908    3.1535   -0.5089 H   0  0  0  0  0  0  0  0  0  0  0  0
   -7.8853    1.8623    1.4215 H   0  0  0  0  0  0  0  0  0  0  0  0
   -8.4489    1.2814   -0.1354 H   0  0  0  0  0  0  0  0  0  0  0  0
   -5.6925    0.9897    1.6336 H   0  0  0  0  0  0  0  0  0  0  0  0
   -3.9961   -0.7410    1.3019 H   0  0  0  0  0  0  0  0  0  0  0  0
   -3.9067   -2.5524   -2.4045 H   0  0  0  0  0  0  0  0  0  0  0  0
    1.0004   -3.5941   -2.7433 H   0  0  0  0  0  0  0  0  0  0  0  0
    1.1627   -4.4690   -1.2363 H   0  0  0  0  0  0  0  0  0  0  0  0
   -0.4431   -6.1746   -1.9497 H   0  0  0  0  0  0  0  0  0  0  0  0
    0.8528   -5.9992   -3.1360 H   0  0  0  0  0  0  0  0  0  0  0  0
   -1.3261   -6.0894   -4.2959 H   0  0  0  0  0  0  0  0  0  0  0  0
   -0.5914   -4.5013   -4.5114 H   0  0  0  0  0  0  0  0  0  0  0  0
   -2.8491   -5.2851   -2.6152 H   0  0  0  0  0  0  0  0  0  0  0  0
   -2.8972   -4.1374   -3.9588 H   0  0  0  0  0  0  0  0  0  0  0  0
    4.9579   -0.6695   -0.6513 H   0  0  0  0  0  0  0  0  0  0  0  0
    6.4031    1.2819   -0.8013 H   0  0  0  0  0  0  0  0  0  0  0  0
    5.7391    4.4052    1.3422 H   0  0  0  0  0  0  0  0  0  0  0  0
    8.0008    4.4499    1.4851 H   0  0  0  0  0  0  0  0  0  0  0  0
    7.6525    2.7934    1.9463 H   0  0  0  0  0  0  0  0  0  0  0  0
    8.4199    1.9786   -0.2344 H   0  0  0  0  0  0  0  0  0  0  0  0
    9.6263    3.0609    0.4258 H   0  0  0  0  0  0  0  0  0  0  0  0
    8.8821    4.9019   -0.9943 H   0  0  0  0  0  0  0  0  0  0  0  0
    9.2065    3.4887   -1.9930 H   0  0  0  0  0  0  0  0  0  0  0  0
    7.0973    4.6442   -2.6418 H   0  0  0  0  0  0  0  0  0  0  0  0
    6.8165    2.9815   -2.1713 H   0  0  0  0  0  0  0  0  0  0  0  0
    6.3267    5.5080   -0.5518 H   0  0  0  0  0  0  0  0  0  0  0  0
    5.0996    4.4065   -1.1513 H   0  0  0  0  0  0  0  0  0  0  0  0
    3.9783    3.2884    2.1564 H   0  0  0  0  0  0  0  0  0  0  0  0
    2.5439    1.3218    2.3050 H   0  0  0  0  0  0  0  0  0  0  0  0
    4.1618   -2.0684    2.1965 H   0  0  0  0  0  0  0  0  0  0  0  0
    0.2662   -5.2008    0.5770 H   0  0  0  0  0  0  0  0  0  0  0  0
   -0.7978   -4.1629    1.5391 H   0  0  0  0  0  0  0  0  0  0  0  0
    0.0023   -6.2244    2.7199 H   0  0  0  0  0  0  0  0  0  0  0  0
    0.3459   -4.7229    3.5801 H   0  0  0  0  0  0  0  0  0  0  0  0
    2.3308   -6.2786    3.5244 H   0  0  0  0  0  0  0  0  0  0  0  0
    2.3286   -6.1911    1.7631 H   0  0  0  0  0  0  0  0  0  0  0  0
    2.8587   -3.9592    3.7680 H   0  0  0  0  0  0  0  0  0  0  0  0
    3.9421   -4.5854    2.5165 H   0  0  0  0  0  0  0  0  0  0  0  0
  2  4  1  0  0  0  0
  2  1  2  0  0  0  0
  3 50  1  0  0  0  0
  3  2  1  0  0  0  0
  5  4  1  0  0  0  0
  6  7  1  0  0  0  0
  6  5  2  0  0  0  0
  7 18  2  0  0  0  0
  8  9  2  0  0  0  0
  8  7  1  0  0  0  0
  9 10  1  0  0  0  0
 10 11  1  0  0  0  0
 10 17  2  0  0  0  0
 11 16  1  0  0  0  0
 11 12  1  0  0  0  0
 12 13  1  0  0  0  0
 12 54  1  0  0  0  0
 13 56  1  0  0  0  0
 13 57  1  0  0  0  0
 14 59  1  0  0  0  0
 14 13  1  0  0  0  0
 15 14  1  0  0  0  0
 15 60  1  0  0  0  0
 16 15  1  0  0  0  0
 16 62  1  0  0  0  0
 17 64  1  0  0  0  0
 18 17  1  0  0  0  0
 18 65  1  0  0  0  0
 19  6  1  0  0  0  0
 20 19  2  0  0  0  0
 20 21  1  0  0  0  0
 21 26  2  0  0  0  0
 22 21  1  0  0  0  0
 22 68  1  0  0  0  0
 23 22  1  0  0  0  0
 23 69  1  0  0  0  0
 24 25  1  0  0  0  0
 24 23  1  0  0  0  0
 25 73  1  0  0  0  0
 25 20  1  0  0  0  0
 26  5  1  0  0  0  0
 26 27  1  0  0  0  0
 27 45  1  0  0  0  0
 28 27  2  0  0  0  0
 28 30  1  0  0  0  0
 29  2  1  0  0  0  0
 29 28  1  0  0  0  0
 30 43  2  0  0  0  0
 31 30  1  0  0  0  0
 31 42  2  0  0  0  0
 32 31  1  0  0  0  0
 33 32  2  0  0  0  0
 33 34  1  0  0  0  0
 34 41  2  0  0  0  0
 35 34  1  0  0  0  0
 35 36  1  0  0  0  0
 35 77  1  0  0  0  0
 36 78  1  0  0  0  0
 36 79  1  0  0  0  0
 37 81  1  0  0  0  0
 37 36  1  0  0  0  0
 38 82  1  0  0  0  0
 38 37  1  0  0  0  0
 39 38  1  0  0  0  0
 39 40  1  0  0  0  0
 40 86  1  0  0  0  0
 40 35  1  0  0  0  0
 41 42  1  0  0  0  0
 41 88  1  0  0  0  0
 42 89  1  0  0  0  0
 43 44  1  0  0  0  0
 43 90  1  0  0  0  0
 44 49  1  0  0  0  0
 45 46  1  0  0  0  0
 45 44  2  0  0  0  0
 46 92  1  0  0  0  0
 46 47  1  0  0  0  0
 47 93  1  0  0  0  0
 47 94  1  0  0  0  0
 48 47  1  0  0  0  0
 48 49  1  0  0  0  0
 48 95  1  0  0  0  0
 49 97  1  0  0  0  0
 51  8  1  0  0  0  0
 52  9  1  0  0  0  0
 53 11  1  0  0  0  0
 55 12  1  0  0  0  0
 58 14  1  0  0  0  0
 61 15  1  0  0  0  0
 63 16  1  0  0  0  0
 66 19  1  0  0  0  0
 67 22  1  0  0  0  0
 70 23  1  0  0  0  0
 71 24  1  0  0  0  0
 72 24  1  0  0  0  0
 74 25  1  0  0  0  0
 75 32  1  0  0  0  0
 76 33  1  0  0  0  0
 80 37  1  0  0  0  0
 83 38  1  0  0  0  0
 84 39  1  0  0  0  0
 85 39  1  0  0  0  0
 87 40  1  0  0  0  0
 91 46  1  0  0  0  0
 96 48  1  0  0  0  0
 98 49  1  0  0  0  0
M  END
$$$$
