O=P1(O)OC2=C(C3=C(C(C)C)C=C(C(C)C)C=C3C(C)C)C=C4C(C=CC=C4)=C2C5=C(O1)[C@@]([C@@]6=C(C(C)C)C=C(C(C)C)C=C6C(C)C)=CC7=C5C=CC=C7
 OpenBabel09032010383D

112118  0  0  0  0  0  0  0  0999 V2000
   -0.7213   -0.8448    2.2238 O   0  0  0  0  0  0  0  0  0  0  0  0
   -0.0646   -0.6490    0.8947 P   0  0  0  0  0  0  0  0  0  0  0  0
    0.7510   -1.9620    0.4546 O   0  0  0  0  0  0  0  0  0  0  0  0
    1.0537    0.5044    0.8665 O   0  0  0  0  0  0  0  0  0  0  0  0
    1.5668    0.9400   -0.3326 C   0  0  0  0  0  0  0  0  0  0  0  0
    2.9508    0.7561   -0.5244 C   0  0  0  0  0  0  0  0  0  0  0  0
    3.8077    0.0542    0.4610 C   0  0  0  0  0  0  0  0  0  0  0  0
    4.2254    0.7180    1.6503 C   0  0  0  0  0  0  0  0  0  0  0  0
    3.8356    2.1658    1.9637 C   0  0  0  0  0  0  0  0  0  0  0  0
    3.0273    2.2696    3.2616 C   0  0  0  0  0  0  0  0  0  0  0  0
    5.0672    3.0771    2.0141 C   0  0  0  0  0  0  0  0  0  0  0  0
    5.0479    0.0348    2.5699 C   0  0  0  0  0  0  0  0  0  0  0  0
    5.4871   -1.2715    2.3434 C   0  0  0  0  0  0  0  0  0  0  0  0
    6.3868   -1.9545    3.3585 C   0  0  0  0  0  0  0  0  0  0  0  0
    5.7414   -3.2234    3.9216 C   0  0  0  0  0  0  0  0  0  0  0  0
    7.7667   -2.2585    2.7699 C   0  0  0  0  0  0  0  0  0  0  0  0
    5.0901   -1.9087    1.1648 C   0  0  0  0  0  0  0  0  0  0  0  0
    4.2483   -1.2831    0.2218 C   0  0  0  0  0  0  0  0  0  0  0  0
    3.8767   -2.0550   -1.0499 C   0  0  0  0  0  0  0  0  0  0  0  0
    3.4772   -3.5162   -0.7907 C   0  0  0  0  0  0  0  0  0  0  0  0
    5.0298   -2.0174   -2.0591 C   0  0  0  0  0  0  0  0  0  0  0  0
    3.5266    1.2895   -1.6787 C   0  0  0  0  0  0  0  0  0  0  0  0
    2.7516    1.9118   -2.6583 C   0  0  0  0  0  0  0  0  0  0  0  0
    1.3544    2.0752   -2.4647 C   0  0  0  0  0  0  0  0  0  0  0  0
    0.6345    2.6225   -3.5581 C   0  0  0  0  0  0  0  0  0  0  0  0
    1.2573    3.0457   -4.7354 C   0  0  0  0  0  0  0  0  0  0  0  0
    2.6298    2.9208   -4.8713 C   0  0  0  0  0  0  0  0  0  0  0  0
    3.3709    2.3517   -3.8404 C   0  0  0  0  0  0  0  0  0  0  0  0
    0.7345    1.6534   -1.2317 C   0  0  0  0  0  0  0  0  0  0  0  0
   -0.6481    1.9423   -0.8966 C   0  0  0  0  0  0  0  0  0  0  0  0
   -1.5281    0.8978   -0.5175 C   0  0  0  0  0  0  0  0  0  0  0  0
   -1.0308   -0.3749   -0.3616 O   0  0  0  0  0  0  0  0  0  0  0  0
   -2.9198    1.0607   -0.3874 C   0  0  0  0  0  0  0  0  0  0  0  0
   -3.8381   -0.0709   -0.1256 C   0  0  0  0  0  0  0  0  0  0  0  0
   -4.3587   -0.3034    1.1809 C   0  0  0  0  0  0  0  0  0  0  0  0
   -3.9732    0.5675    2.3807 C   0  0  0  0  0  0  0  0  0  0  0  0
   -5.0604    1.6098    2.6623 C   0  0  0  0  0  0  0  0  0  0  0  0
   -3.6919   -0.2383    3.6582 C   0  0  0  0  0  0  0  0  0  0  0  0
   -5.2819   -1.3519    1.3759 C   0  0  0  0  0  0  0  0  0  0  0  0
   -5.6804   -2.1943    0.3346 C   0  0  0  0  0  0  0  0  0  0  0  0
   -6.6649   -3.3185    0.6038 C   0  0  0  0  0  0  0  0  0  0  0  0
   -6.0420   -4.6896    0.3288 C   0  0  0  0  0  0  0  0  0  0  0  0
   -7.9587   -3.1365   -0.1940 C   0  0  0  0  0  0  0  0  0  0  0  0
   -5.1515   -1.9687   -0.9383 C   0  0  0  0  0  0  0  0  0  0  0  0
   -4.2464   -0.9186   -1.1958 C   0  0  0  0  0  0  0  0  0  0  0  0
   -3.7443   -0.7298   -2.6300 C   0  0  0  0  0  0  0  0  0  0  0  0
   -4.8964   -0.4386   -3.5986 C   0  0  0  0  0  0  0  0  0  0  0  0
   -2.9255   -1.9359   -3.1017 C   0  0  0  0  0  0  0  0  0  0  0  0
   -3.4488    2.3403   -0.5722 C   0  0  0  0  0  0  0  0  0  0  0  0
   -2.6265    3.4404   -0.8220 C   0  0  0  0  0  0  0  0  0  0  0  0
   -1.2256    3.2623   -0.9655 C   0  0  0  0  0  0  0  0  0  0  0  0
   -0.4591    4.4444   -1.1318 C   0  0  0  0  0  0  0  0  0  0  0  0
   -1.0400    5.7127   -1.2167 C   0  0  0  0  0  0  0  0  0  0  0  0
   -2.4153    5.8484   -1.1216 C   0  0  0  0  0  0  0  0  0  0  0  0
   -3.2024    4.7185   -0.9198 C   0  0  0  0  0  0  0  0  0  0  0  0
    1.2058   -2.3362    1.2307 H   0  0  0  0  0  0  0  0  0  0  0  0
    3.1982    2.5702    1.1727 H   0  0  0  0  0  0  0  0  0  0  0  0
    2.1488    1.6161    3.2316 H   0  0  0  0  0  0  0  0  0  0  0  0
    3.6191    1.9930    4.1405 H   0  0  0  0  0  0  0  0  0  0  0  0
    2.6756    3.2962    3.4119 H   0  0  0  0  0  0  0  0  0  0  0  0
    4.7659    4.1216    2.1498 H   0  0  0  0  0  0  0  0  0  0  0  0
    5.7401    2.8183    2.8385 H   0  0  0  0  0  0  0  0  0  0  0  0
    5.6391    3.0120    1.0817 H   0  0  0  0  0  0  0  0  0  0  0  0
    5.3646    0.5423    3.4798 H   0  0  0  0  0  0  0  0  0  0  0  0
    6.5408   -1.2719    4.2049 H   0  0  0  0  0  0  0  0  0  0  0  0
    5.6068   -3.9919    3.1527 H   0  0  0  0  0  0  0  0  0  0  0  0
    6.3644   -3.6525    4.7138 H   0  0  0  0  0  0  0  0  0  0  0  0
    4.7572   -3.0044    4.3506 H   0  0  0  0  0  0  0  0  0  0  0  0
    8.2352   -1.3479    2.3801 H   0  0  0  0  0  0  0  0  0  0  0  0
    7.7121   -2.9827    1.9497 H   0  0  0  0  0  0  0  0  0  0  0  0
    8.4291   -2.6744    3.5368 H   0  0  0  0  0  0  0  0  0  0  0  0
    5.4563   -2.9145    0.9714 H   0  0  0  0  0  0  0  0  0  0  0  0
    3.0002   -1.5907   -1.5144 H   0  0  0  0  0  0  0  0  0  0  0  0
    4.3359   -4.1387   -0.5173 H   0  0  0  0  0  0  0  0  0  0  0  0
    3.0393   -3.9539   -1.6949 H   0  0  0  0  0  0  0  0  0  0  0  0
    2.7395   -3.5973    0.0122 H   0  0  0  0  0  0  0  0  0  0  0  0
    5.9188   -2.5296   -1.6738 H   0  0  0  0  0  0  0  0  0  0  0  0
    4.7398   -2.5092   -2.9940 H   0  0  0  0  0  0  0  0  0  0  0  0
    5.3239   -0.9921   -2.3007 H   0  0  0  0  0  0  0  0  0  0  0  0
    4.6013    1.1872   -1.8223 H   0  0  0  0  0  0  0  0  0  0  0  0
   -0.4493    2.7164   -3.5136 H   0  0  0  0  0  0  0  0  0  0  0  0
    0.6617    3.4652   -5.5417 H   0  0  0  0  0  0  0  0  0  0  0  0
    3.1224    3.2454   -5.7832 H   0  0  0  0  0  0  0  0  0  0  0  0
    4.4448    2.2363   -3.9766 H   0  0  0  0  0  0  0  0  0  0  0  0
   -3.0415    1.0990    2.1588 H   0  0  0  0  0  0  0  0  0  0  0  0
   -6.0073    1.1372    2.9470 H   0  0  0  0  0  0  0  0  0  0  0  0
   -4.7574    2.2715    3.4810 H   0  0  0  0  0  0  0  0  0  0  0  0
   -5.2574    2.2343    1.7860 H   0  0  0  0  0  0  0  0  0  0  0  0
   -3.0179   -1.0778    3.4637 H   0  0  0  0  0  0  0  0  0  0  0  0
   -4.6074   -0.6424    4.1033 H   0  0  0  0  0  0  0  0  0  0  0  0
   -3.2239    0.4025    4.4140 H   0  0  0  0  0  0  0  0  0  0  0  0
   -5.7034   -1.5166    2.3653 H   0  0  0  0  0  0  0  0  0  0  0  0
   -6.9380   -3.2977    1.6672 H   0  0  0  0  0  0  0  0  0  0  0  0
   -6.7354   -5.4901    0.6087 H   0  0  0  0  0  0  0  0  0  0  0  0
   -5.1221   -4.8248    0.9086 H   0  0  0  0  0  0  0  0  0  0  0  0
   -5.7919   -4.8220   -0.7294 H   0  0  0  0  0  0  0  0  0  0  0  0
   -7.7880   -3.2045   -1.2739 H   0  0  0  0  0  0  0  0  0  0  0  0
   -8.6886   -3.9075    0.0760 H   0  0  0  0  0  0  0  0  0  0  0  0
   -8.4111   -2.1599    0.0116 H   0  0  0  0  0  0  0  0  0  0  0  0
   -5.4554   -2.6206   -1.7548 H   0  0  0  0  0  0  0  0  0  0  0  0
   -3.0798    0.1363   -2.6923 H   0  0  0  0  0  0  0  0  0  0  0  0
   -4.5084   -0.2124   -4.5978 H   0  0  0  0  0  0  0  0  0  0  0  0
   -5.5811   -1.2877   -3.6963 H   0  0  0  0  0  0  0  0  0  0  0  0
   -5.4796    0.4259   -3.2623 H   0  0  0  0  0  0  0  0  0  0  0  0
   -3.5324   -2.8448   -3.1716 H   0  0  0  0  0  0  0  0  0  0  0  0
   -2.0963   -2.1399   -2.4155 H   0  0  0  0  0  0  0  0  0  0  0  0
   -2.5001   -1.7461   -4.0933 H   0  0  0  0  0  0  0  0  0  0  0  0
   -4.5272    2.4750   -0.4966 H   0  0  0  0  0  0  0  0  0  0  0  0
    0.6271    4.3937   -1.1861 H   0  0  0  0  0  0  0  0  0  0  0  0
   -0.4104    6.5881   -1.3517 H   0  0  0  0  0  0  0  0  0  0  0  0
   -2.8755    6.8305   -1.1867 H   0  0  0  0  0  0  0  0  0  0  0  0
   -4.2792    4.8467   -0.8233 H   0  0  0  0  0  0  0  0  0  0  0  0
  2  1  2  0  0  0  0
  3  2  1  0  0  0  0
  3 56  1  0  0  0  0
  4  2  1  0  0  0  0
  5  4  1  0  0  0  0
  6  5  1  0  0  0  0
  6  7  1  0  0  0  0
  7  8  1  0  0  0  0
  8  9  1  0  0  0  0
  8 12  2  0  0  0  0
  9 11  1  0  0  0  0
  9 10  1  0  0  0  0
 10 60  1  0  0  0  0
 10 59  1  0  0  0  0
 11 61  1  0  0  0  0
 11 62  1  0  0  0  0
 12 64  1  0  0  0  0
 13 12  1  0  0  0  0
 13 14  1  0  0  0  0
 14 15  1  0  0  0  0
 14 65  1  0  0  0  0
 15 68  1  0  0  0  0
 15 67  1  0  0  0  0
 16 14  1  0  0  0  0
 16 71  1  0  0  0  0
 17 13  2  0  0  0  0
 18  7  2  0  0  0  0
 18 17  1  0  0  0  0
 19 20  1  0  0  0  0
 19 18  1  0  0  0  0
 20 74  1  0  0  0  0
 20 76  1  0  0  0  0
 21 77  1  0  0  0  0
 21 19  1  0  0  0  0
 22  6  2  0  0  0  0
 23 24  1  0  0  0  0
 23 22  1  0  0  0  0
 24 29  1  0  0  0  0
 25 81  1  0  0  0  0
 25 24  2  0  0  0  0
 26 25  1  0  0  0  0
 27 26  2  0  0  0  0
 27 28  1  0  0  0  0
 28 23  2  0  0  0  0
 29 30  1  0  0  0  0
 29  5  2  0  0  0  0
 30 31  1  0  0  0  0
 31 33  2  0  0  0  0
 31 32  1  0  0  0  0
 32  2  1  0  0  0  0
 33 34  1  0  0  0  0
 34 35  2  0  0  0  0
 35 39  1  0  0  0  0
 35 36  1  0  0  0  0
 36 37  1  0  0  0  0
 36 38  1  0  0  0  0
 37 86  1  0  0  0  0
 37 87  1  0  0  0  0
 38 90  1  0  0  0  0
 38 91  1  0  0  0  0
 39 92  1  0  0  0  0
 40 41  1  0  0  0  0
 40 39  2  0  0  0  0
 41 93  1  0  0  0  0
 42 41  1  0  0  0  0
 42 94  1  0  0  0  0
 42 95  1  0  0  0  0
 43 99  1  0  0  0  0
 43 98  1  0  0  0  0
 43 41  1  0  0  0  0
 44 40  1  0  0  0  0
 45 44  2  0  0  0  0
 45 34  1  0  0  0  0
 46 45  1  0  0  0  0
 47104  1  0  0  0  0
 47 46  1  0  0  0  0
 48 46  1  0  0  0  0
 48106  1  0  0  0  0
 49108  1  0  0  0  0
 49 33  1  0  0  0  0
 50 49  2  0  0  0  0
 51 30  2  0  0  0  0
 51 50  1  0  0  0  0
 52 51  1  0  0  0  0
 53 52  2  0  0  0  0
 53 54  1  0  0  0  0
 54 55  2  0  0  0  0
 55112  1  0  0  0  0
 55 50  1  0  0  0  0
 57  9  1  0  0  0  0
 58 10  1  0  0  0  0
 63 11  1  0  0  0  0
 66 15  1  0  0  0  0
 69 16  1  0  0  0  0
 70 16  1  0  0  0  0
 72 17  1  0  0  0  0
 73 19  1  0  0  0  0
 75 20  1  0  0  0  0
 78 21  1  0  0  0  0
 79 21  1  0  0  0  0
 80 22  1  0  0  0  0
 82 26  1  0  0  0  0
 83 27  1  0  0  0  0
 84 28  1  0  0  0  0
 85 36  1  0  0  0  0
 88 37  1  0  0  0  0
 89 38  1  0  0  0  0
 96 42  1  0  0  0  0
 97 43  1  0  0  0  0
100 44  1  0  0  0  0
101 46  1  0  0  0  0
102 47  1  0  0  0  0
103 47  1  0  0  0  0
105 48  1  0  0  0  0
107 48  1  0  0  0  0
109 52  1  0  0  0  0
110 53  1  0  0  0  0
111 54  1  0  0  0  0
M  END
$$$$
