O=P1(O)OC2=C(C3=CC(C(F)(F)F)=CC(C(F)(F)F)=C3)C=C4C(CCCC4)=C2C5=C(O1)C(C6=CC(C(F)(F)F)=CC(C(F)(F)F)=C6)=CC7=C5CCCC7
 OpenBabel09032010383D

 78 84  0  0  0  0  0  0  0  0999 V2000
    0.5799   -3.2560   -0.2299 O   0  0  0  0  0  0  0  0  0  0  0  0
   -0.0383   -2.0624    0.4299 P   0  0  0  0  0  0  0  0  0  0  0  0
   -0.8034   -2.5188    1.7708 O   0  0  0  0  0  0  0  0  0  0  0  0
   -1.1702   -1.3098   -0.4353 O   0  0  0  0  0  0  0  0  0  0  0  0
   -1.5692   -0.0398   -0.0795 C   0  0  0  0  0  0  0  0  0  0  0  0
   -2.9295    0.1372    0.2379 C   0  0  0  0  0  0  0  0  0  0  0  0
   -3.9132   -0.9529    0.1716 C   0  0  0  0  0  0  0  0  0  0  0  0
   -4.8169   -1.0309   -0.8997 C   0  0  0  0  0  0  0  0  0  0  0  0
   -5.7920   -2.0398   -0.9627 C   0  0  0  0  0  0  0  0  0  0  0  0
   -6.7515   -2.1015   -2.1281 C   0  0  0  0  0  0  0  0  0  0  0  0
   -7.9525   -2.6535   -1.7979 F   0  0  0  0  0  0  0  0  0  0  0  0
   -6.2673   -2.8458   -3.1588 F   0  0  0  0  0  0  0  0  0  0  0  0
   -7.0380   -0.8762   -2.6495 F   0  0  0  0  0  0  0  0  0  0  0  0
   -5.8386   -3.0025    0.0585 C   0  0  0  0  0  0  0  0  0  0  0  0
   -4.9449   -2.9503    1.1398 C   0  0  0  0  0  0  0  0  0  0  0  0
   -4.9847   -3.9768    2.2462 C   0  0  0  0  0  0  0  0  0  0  0  0
   -5.2634   -3.4245    3.4588 F   0  0  0  0  0  0  0  0  0  0  0  0
   -5.9219   -4.9461    2.0532 F   0  0  0  0  0  0  0  0  0  0  0  0
   -3.7985   -4.6306    2.3948 F   0  0  0  0  0  0  0  0  0  0  0  0
   -3.9970   -1.9144    1.1880 C   0  0  0  0  0  0  0  0  0  0  0  0
   -3.3562    1.4127    0.6156 C   0  0  0  0  0  0  0  0  0  0  0  0
   -2.4586    2.4817    0.7144 C   0  0  0  0  0  0  0  0  0  0  0  0
   -1.1034    2.2997    0.3472 C   0  0  0  0  0  0  0  0  0  0  0  0
   -0.1155    3.4264    0.6403 C   0  0  0  0  0  0  0  0  0  0  0  0
   -0.7564    4.8073    0.7535 C   0  0  0  0  0  0  0  0  0  0  0  0
   -1.9373    4.7600    1.7065 C   0  0  0  0  0  0  0  0  0  0  0  0
   -3.0035    3.8181    1.1647 C   0  0  0  0  0  0  0  0  0  0  0  0
   -0.6361    1.0292   -0.1236 C   0  0  0  0  0  0  0  0  0  0  0  0
    0.7038    0.8243   -0.6092 C   0  0  0  0  0  0  0  0  0  0  0  0
    1.5510   -0.1227    0.0161 C   0  0  0  0  0  0  0  0  0  0  0  0
    1.0013   -0.9534    0.9663 O   0  0  0  0  0  0  0  0  0  0  0  0
    2.9243   -0.2619   -0.2656 C   0  0  0  0  0  0  0  0  0  0  0  0
    3.8199   -1.1644    0.4922 C   0  0  0  0  0  0  0  0  0  0  0  0
    4.6986   -2.0449   -0.1654 C   0  0  0  0  0  0  0  0  0  0  0  0
    5.5885   -2.8705    0.5452 C   0  0  0  0  0  0  0  0  0  0  0  0
    6.5664   -3.7679   -0.1780 C   0  0  0  0  0  0  0  0  0  0  0  0
    7.8219   -3.2400   -0.2029 F   0  0  0  0  0  0  0  0  0  0  0  0
    6.6893   -4.9922    0.4060 F   0  0  0  0  0  0  0  0  0  0  0  0
    6.2354   -4.0038   -1.4772 F   0  0  0  0  0  0  0  0  0  0  0  0
    5.5901   -2.8174    1.9475 C   0  0  0  0  0  0  0  0  0  0  0  0
    4.7274   -1.9531    2.6358 C   0  0  0  0  0  0  0  0  0  0  0  0
    4.7086   -1.9098    4.1450 C   0  0  0  0  0  0  0  0  0  0  0  0
    5.8517   -2.3887    4.7101 F   0  0  0  0  0  0  0  0  0  0  0  0
    4.5505   -0.6501    4.6376 F   0  0  0  0  0  0  0  0  0  0  0  0
    3.6931   -2.6491    4.6692 F   0  0  0  0  0  0  0  0  0  0  0  0
    3.8537   -1.1365    1.8975 C   0  0  0  0  0  0  0  0  0  0  0  0
    3.4411    0.5255   -1.2999 C   0  0  0  0  0  0  0  0  0  0  0  0
    2.6281    1.3861   -2.0514 C   0  0  0  0  0  0  0  0  0  0  0  0
    1.2644    1.5437   -1.7110 C   0  0  0  0  0  0  0  0  0  0  0  0
    0.3657    2.3479   -2.6452 C   0  0  0  0  0  0  0  0  0  0  0  0
    1.1134    3.3579   -3.5119 C   0  0  0  0  0  0  0  0  0  0  0  0
    2.2850    2.6858   -4.2061 C   0  0  0  0  0  0  0  0  0  0  0  0
    3.2753    2.1683   -3.1715 C   0  0  0  0  0  0  0  0  0  0  0  0
   -0.5725   -3.4465    1.9685 H   0  0  0  0  0  0  0  0  0  0  0  0
   -4.7623   -0.2884   -1.6971 H   0  0  0  0  0  0  0  0  0  0  0  0
   -6.5831   -3.7993    0.0107 H   0  0  0  0  0  0  0  0  0  0  0  0
   -3.3116   -1.8570    2.0349 H   0  0  0  0  0  0  0  0  0  0  0  0
   -4.4045    1.5708    0.8685 H   0  0  0  0  0  0  0  0  0  0  0  0
    0.3802    3.1837    1.5895 H   0  0  0  0  0  0  0  0  0  0  0  0
    0.6675    3.4998   -0.1159 H   0  0  0  0  0  0  0  0  0  0  0  0
   -1.0880    5.1492   -0.2351 H   0  0  0  0  0  0  0  0  0  0  0  0
   -0.0134    5.5285    1.1121 H   0  0  0  0  0  0  0  0  0  0  0  0
   -2.3605    5.7621    1.8373 H   0  0  0  0  0  0  0  0  0  0  0  0
   -1.6023    4.4199    2.6946 H   0  0  0  0  0  0  0  0  0  0  0  0
   -3.5005    4.2855    0.3051 H   0  0  0  0  0  0  0  0  0  0  0  0
   -3.7631    3.6703    1.9421 H   0  0  0  0  0  0  0  0  0  0  0  0
    4.6905   -2.0931   -1.2554 H   0  0  0  0  0  0  0  0  0  0  0  0
    6.2767   -3.4546    2.5079 H   0  0  0  0  0  0  0  0  0  0  0  0
    3.1937   -0.4535    2.4354 H   0  0  0  0  0  0  0  0  0  0  0  0
    4.5016    0.4633   -1.5425 H   0  0  0  0  0  0  0  0  0  0  0  0
   -0.1500    1.6301   -3.2967 H   0  0  0  0  0  0  0  0  0  0  0  0
   -0.4076    2.8970   -2.1051 H   0  0  0  0  0  0  0  0  0  0  0  0
    1.4734    4.1896   -2.8932 H   0  0  0  0  0  0  0  0  0  0  0  0
    0.4289    3.7812   -4.2556 H   0  0  0  0  0  0  0  0  0  0  0  0
    1.9217    1.8564   -4.8259 H   0  0  0  0  0  0  0  0  0  0  0  0
    2.7860    3.3931   -4.8763 H   0  0  0  0  0  0  0  0  0  0  0  0
    3.8112    3.0152   -2.7244 H   0  0  0  0  0  0  0  0  0  0  0  0
    4.0175    1.5438   -3.6836 H   0  0  0  0  0  0  0  0  0  0  0  0
  1  2  2  0  0  0  0
  2 31  1  0  0  0  0
  2  3  1  0  0  0  0
  3 54  1  0  0  0  0
  4  5  1  0  0  0  0
  4  2  1  0  0  0  0
  5  6  1  0  0  0  0
  6 21  2  0  0  0  0
  7  6  1  0  0  0  0
  7 20  2  0  0  0  0
  8  7  1  0  0  0  0
  9  8  2  0  0  0  0
  9 14  1  0  0  0  0
 10 11  1  0  0  0  0
 10  9  1  0  0  0  0
 12 10  1  0  0  0  0
 13 10  1  0  0  0  0
 14 15  2  0  0  0  0
 15 20  1  0  0  0  0
 15 16  1  0  0  0  0
 16 19  1  0  0  0  0
 16 17  1  0  0  0  0
 18 16  1  0  0  0  0
 20 57  1  0  0  0  0
 21 22  1  0  0  0  0
 21 58  1  0  0  0  0
 22 27  1  0  0  0  0
 23 24  1  0  0  0  0
 23 22  2  0  0  0  0
 24 25  1  0  0  0  0
 24 59  1  0  0  0  0
 25 62  1  0  0  0  0
 25 26  1  0  0  0  0
 26 63  1  0  0  0  0
 26 64  1  0  0  0  0
 27 26  1  0  0  0  0
 27 66  1  0  0  0  0
 28  5  2  0  0  0  0
 28 23  1  0  0  0  0
 29 28  1  0  0  0  0
 29 30  2  0  0  0  0
 30 31  1  0  0  0  0
 32 30  1  0  0  0  0
 32 33  1  0  0  0  0
 33 46  1  0  0  0  0
 34 33  2  0  0  0  0
 34 35  1  0  0  0  0
 35 40  2  0  0  0  0
 36 38  1  0  0  0  0
 36 35  1  0  0  0  0
 37 36  1  0  0  0  0
 39 36  1  0  0  0  0
 40 68  1  0  0  0  0
 40 41  1  0  0  0  0
 41 42  1  0  0  0  0
 42 44  1  0  0  0  0
 42 45  1  0  0  0  0
 42 43  1  0  0  0  0
 46 69  1  0  0  0  0
 46 41  2  0  0  0  0
 47 32  2  0  0  0  0
 48 49  2  0  0  0  0
 48 47  1  0  0  0  0
 49 29  1  0  0  0  0
 50 72  1  0  0  0  0
 50 49  1  0  0  0  0
 51 73  1  0  0  0  0
 51 50  1  0  0  0  0
 52 51  1  0  0  0  0
 52 53  1  0  0  0  0
 53 77  1  0  0  0  0
 53 48  1  0  0  0  0
 55  8  1  0  0  0  0
 56 14  1  0  0  0  0
 60 24  1  0  0  0  0
 61 25  1  0  0  0  0
 65 27  1  0  0  0  0
 67 34  1  0  0  0  0
 70 47  1  0  0  0  0
 71 50  1  0  0  0  0
 74 51  1  0  0  0  0
 75 52  1  0  0  0  0
 76 52  1  0  0  0  0
 78 53  1  0  0  0  0
M  END
$$$$
