O=P1(O)OC2=C([Si](C3=CC=CC=C3)(C4=CC=CC=C4)C5=CC=CC=C5)C=C6C(CCCC6)=C2C7=C(O1)C([Si](C8=CC=CC=C8)(C9=CC=CC=C9)C%10=CC=CC=C%10)=CC%11=C7CCCC%11
 OpenBabel09032010383D

112122  0  0  0  0  0  0  0  0999 V2000
   -1.1146   -0.1756   -2.8944 O   0  0  0  0  0  0  0  0  0  0  0  0
   -0.3246    0.5521   -1.8498 P   0  0  0  0  0  0  0  0  0  0  0  0
   -0.0132    2.0759   -2.2492 O   0  0  0  0  0  0  0  0  0  0  0  0
   -1.0127    0.7044   -0.3999 O   0  0  0  0  0  0  0  0  0  0  0  0
   -1.5895   -0.4420    0.0869 C   0  0  0  0  0  0  0  0  0  0  0  0
   -2.9683   -0.3997    0.3919 C   0  0  0  0  0  0  0  0  0  0  0  0
   -3.9322    1.1999    0.5399 Si  0  0  0  0  0  0  0  0  0  0  0  0
   -2.8033    2.5502    1.1719 C   0  0  0  0  0  0  0  0  0  0  0  0
   -1.9258    2.3070    2.2517 C   0  0  0  0  0  0  0  0  0  0  0  0
   -1.0607    3.2960    2.7265 C   0  0  0  0  0  0  0  0  0  0  0  0
   -1.0491    4.5529    2.1331 C   0  0  0  0  0  0  0  0  0  0  0  0
   -1.8972    4.8190    1.0629 C   0  0  0  0  0  0  0  0  0  0  0  0
   -2.7623    3.8290    0.5855 C   0  0  0  0  0  0  0  0  0  0  0  0
   -4.6925    1.6679   -1.0982 C   0  0  0  0  0  0  0  0  0  0  0  0
   -5.6638    2.6896   -1.1745 C   0  0  0  0  0  0  0  0  0  0  0  0
   -6.2518    3.0467   -2.3912 C   0  0  0  0  0  0  0  0  0  0  0  0
   -5.8859    2.3899   -3.5608 C   0  0  0  0  0  0  0  0  0  0  0  0
   -4.9356    1.3751   -3.5126 C   0  0  0  0  0  0  0  0  0  0  0  0
   -4.3480    1.0153   -2.2956 C   0  0  0  0  0  0  0  0  0  0  0  0
   -5.3522    0.9557    1.7549 C   0  0  0  0  0  0  0  0  0  0  0  0
   -5.2545    1.3299    3.1085 C   0  0  0  0  0  0  0  0  0  0  0  0
   -6.3228    1.1436    3.9931 C   0  0  0  0  0  0  0  0  0  0  0  0
   -7.5140    0.5799    3.5471 C   0  0  0  0  0  0  0  0  0  0  0  0
   -7.6386    0.2006    2.2151 C   0  0  0  0  0  0  0  0  0  0  0  0
   -6.5721    0.3856    1.3297 C   0  0  0  0  0  0  0  0  0  0  0  0
   -3.6009   -1.6350    0.5854 C   0  0  0  0  0  0  0  0  0  0  0  0
   -2.9105   -2.8445    0.4249 C   0  0  0  0  0  0  0  0  0  0  0  0
   -1.5128   -2.8337    0.2148 C   0  0  0  0  0  0  0  0  0  0  0  0
   -0.8209   -4.1344   -0.1784 C   0  0  0  0  0  0  0  0  0  0  0  0
   -1.5468   -5.3876    0.3039 C   0  0  0  0  0  0  0  0  0  0  0  0
   -3.0121   -5.3284   -0.0959 C   0  0  0  0  0  0  0  0  0  0  0  0
   -3.6898   -4.1324    0.5615 C   0  0  0  0  0  0  0  0  0  0  0  0
   -0.7888   -1.6048    0.1759 C   0  0  0  0  0  0  0  0  0  0  0  0
    0.6521   -1.5088    0.3529 C   0  0  0  0  0  0  0  0  0  0  0  0
    1.5442   -0.7523   -0.4766 C   0  0  0  0  0  0  0  0  0  0  0  0
    1.1319   -0.0371   -1.5760 O   0  0  0  0  0  0  0  0  0  0  0  0
    2.9546   -0.7017   -0.2731 C   0  0  0  0  0  0  0  0  0  0  0  0
    4.0899    0.4223   -1.2758 Si  0  0  0  0  0  0  0  0  0  0  0  0
    3.3439    2.1379   -1.1474 C   0  0  0  0  0  0  0  0  0  0  0  0
    3.3031    3.0230   -2.2397 C   0  0  0  0  0  0  0  0  0  0  0  0
    2.7130    4.2861   -2.1233 C   0  0  0  0  0  0  0  0  0  0  0  0
    2.1519    4.6917   -0.9159 C   0  0  0  0  0  0  0  0  0  0  0  0
    2.1872    3.8395    0.1814 C   0  0  0  0  0  0  0  0  0  0  0  0
    2.7733    2.5774    0.0684 C   0  0  0  0  0  0  0  0  0  0  0  0
    4.2599   -0.1285   -3.0446 C   0  0  0  0  0  0  0  0  0  0  0  0
    3.4360   -1.1174   -3.6131 C   0  0  0  0  0  0  0  0  0  0  0  0
    3.5883   -1.5132   -4.9463 C   0  0  0  0  0  0  0  0  0  0  0  0
    4.5743   -0.9385   -5.7411 C   0  0  0  0  0  0  0  0  0  0  0  0
    5.4118    0.0321   -5.2038 C   0  0  0  0  0  0  0  0  0  0  0  0
    5.2578    0.4310   -3.8728 C   0  0  0  0  0  0  0  0  0  0  0  0
    5.8084    0.4406   -0.5289 C   0  0  0  0  0  0  0  0  0  0  0  0
    6.6969   -0.6303   -0.7640 C   0  0  0  0  0  0  0  0  0  0  0  0
    7.9817   -0.6399   -0.2160 C   0  0  0  0  0  0  0  0  0  0  0  0
    8.4092    0.4195    0.5771 C   0  0  0  0  0  0  0  0  0  0  0  0
    7.5543    1.4895    0.8214 C   0  0  0  0  0  0  0  0  0  0  0  0
    6.2677    1.5016    0.2744 C   0  0  0  0  0  0  0  0  0  0  0  0
    3.4879   -1.4469    0.7839 C   0  0  0  0  0  0  0  0  0  0  0  0
    2.6680   -2.1419    1.6745 C   0  0  0  0  0  0  0  0  0  0  0  0
    1.2639   -2.1208    1.5012 C   0  0  0  0  0  0  0  0  0  0  0  0
    0.4015   -2.6931    2.6305 C   0  0  0  0  0  0  0  0  0  0  0  0
    1.1289   -2.8650    3.9626 C   0  0  0  0  0  0  0  0  0  0  0  0
    2.4219   -3.6251    3.7349 C   0  0  0  0  0  0  0  0  0  0  0  0
    3.3488   -2.7970    2.8577 C   0  0  0  0  0  0  0  0  0  0  0  0
    0.5483    2.5194   -1.5863 H   0  0  0  0  0  0  0  0  0  0  0  0
   -1.8973    1.3304    2.7358 H   0  0  0  0  0  0  0  0  0  0  0  0
   -0.3946    3.0779    3.5571 H   0  0  0  0  0  0  0  0  0  0  0  0
   -0.3737    5.3212    2.4977 H   0  0  0  0  0  0  0  0  0  0  0  0
   -1.8877    5.7989    0.5920 H   0  0  0  0  0  0  0  0  0  0  0  0
   -3.3916    4.0800   -0.2664 H   0  0  0  0  0  0  0  0  0  0  0  0
   -5.9799    3.2248   -0.2783 H   0  0  0  0  0  0  0  0  0  0  0  0
   -6.9968    3.8373   -2.4221 H   0  0  0  0  0  0  0  0  0  0  0  0
   -6.3406    2.6656   -4.5082 H   0  0  0  0  0  0  0  0  0  0  0  0
   -4.6450    0.8564   -4.4232 H   0  0  0  0  0  0  0  0  0  0  0  0
   -3.6169    0.2083   -2.3126 H   0  0  0  0  0  0  0  0  0  0  0  0
   -4.3477    1.7810    3.5058 H   0  0  0  0  0  0  0  0  0  0  0  0
   -6.2222    1.4450    5.0330 H   0  0  0  0  0  0  0  0  0  0  0  0
   -8.3437    0.4403    4.2356 H   0  0  0  0  0  0  0  0  0  0  0  0
   -8.5680   -0.2371    1.8594 H   0  0  0  0  0  0  0  0  0  0  0  0
   -6.7127    0.0772    0.2931 H   0  0  0  0  0  0  0  0  0  0  0  0
   -4.6665   -1.6819    0.8098 H   0  0  0  0  0  0  0  0  0  0  0  0
    0.2126   -4.1845    0.1711 H   0  0  0  0  0  0  0  0  0  0  0  0
   -0.7748   -4.1518   -1.2757 H   0  0  0  0  0  0  0  0  0  0  0  0
   -1.4619   -5.4788    1.3937 H   0  0  0  0  0  0  0  0  0  0  0  0
   -1.0758   -6.2755   -0.1327 H   0  0  0  0  0  0  0  0  0  0  0  0
   -3.0935   -5.2508   -1.1875 H   0  0  0  0  0  0  0  0  0  0  0  0
   -3.5234   -6.2514    0.1995 H   0  0  0  0  0  0  0  0  0  0  0  0
   -3.8233   -4.3325    1.6322 H   0  0  0  0  0  0  0  0  0  0  0  0
   -4.6882   -4.0147    0.1228 H   0  0  0  0  0  0  0  0  0  0  0  0
    3.7109    2.7436   -3.2101 H   0  0  0  0  0  0  0  0  0  0  0  0
    2.6817    4.9486   -2.9855 H   0  0  0  0  0  0  0  0  0  0  0  0
    1.6812    5.6679   -0.8318 H   0  0  0  0  0  0  0  0  0  0  0  0
    1.7567    4.1521    1.1286 H   0  0  0  0  0  0  0  0  0  0  0  0
    2.7679    1.9368    0.9515 H   0  0  0  0  0  0  0  0  0  0  0  0
    2.6543   -1.6059   -3.0346 H   0  0  0  0  0  0  0  0  0  0  0  0
    2.9297   -2.2726   -5.3609 H   0  0  0  0  0  0  0  0  0  0  0  0
    4.6889   -1.2479   -6.7761 H   0  0  0  0  0  0  0  0  0  0  0  0
    6.1877    0.4813   -5.8184 H   0  0  0  0  0  0  0  0  0  0  0  0
    5.9395    1.1911   -3.4890 H   0  0  0  0  0  0  0  0  0  0  0  0
    6.3991   -1.4772   -1.3835 H   0  0  0  0  0  0  0  0  0  0  0  0
    8.6478   -1.4754   -0.4138 H   0  0  0  0  0  0  0  0  0  0  0  0
    9.4088    0.4141    1.0013 H   0  0  0  0  0  0  0  0  0  0  0  0
    7.8893    2.3211    1.4366 H   0  0  0  0  0  0  0  0  0  0  0  0
    5.6376    2.3634    0.4882 H   0  0  0  0  0  0  0  0  0  0  0  0
    4.5603   -1.4478    0.9815 H   0  0  0  0  0  0  0  0  0  0  0  0
   -0.4560   -2.0356    2.8151 H   0  0  0  0  0  0  0  0  0  0  0  0
    0.0272   -3.6769    2.3365 H   0  0  0  0  0  0  0  0  0  0  0  0
    0.4875   -3.4109    4.6636 H   0  0  0  0  0  0  0  0  0  0  0  0
    1.3391   -1.8859    4.4110 H   0  0  0  0  0  0  0  0  0  0  0  0
    2.9122   -3.8448    4.6897 H   0  0  0  0  0  0  0  0  0  0  0  0
    2.2085   -4.5880    3.2539 H   0  0  0  0  0  0  0  0  0  0  0  0
    4.1661   -3.4368    2.5033 H   0  0  0  0  0  0  0  0  0  0  0  0
    3.7945   -2.0021    3.4701 H   0  0  0  0  0  0  0  0  0  0  0  0
  1  2  2  0  0  0  0
  2 36  1  0  0  0  0
  2  4  1  0  0  0  0
  3  2  1  0  0  0  0
  3 64  1  0  0  0  0
  4  5  1  0  0  0  0
  5 33  2  0  0  0  0
  5  6  1  0  0  0  0
  6  7  1  0  0  0  0
  6 26  2  0  0  0  0
  7  8  1  0  0  0  0
  7 20  1  0  0  0  0
  8  9  2  0  0  0  0
  9 10  1  0  0  0  0
  9 65  1  0  0  0  0
 10 66  1  0  0  0  0
 11 67  1  0  0  0  0
 11 10  2  0  0  0  0
 12 11  1  0  0  0  0
 13 12  2  0  0  0  0
 13  8  1  0  0  0  0
 14  7  1  0  0  0  0
 15 14  1  0  0  0  0
 15 70  1  0  0  0  0
 16 15  2  0  0  0  0
 17 18  2  0  0  0  0
 17 16  1  0  0  0  0
 18 19  1  0  0  0  0
 19 14  2  0  0  0  0
 20 21  1  0  0  0  0
 21 75  1  0  0  0  0
 21 22  2  0  0  0  0
 22 76  1  0  0  0  0
 23 22  1  0  0  0  0
 23 77  1  0  0  0  0
 24 23  2  0  0  0  0
 25 20  2  0  0  0  0
 25 24  1  0  0  0  0
 26 80  1  0  0  0  0
 27 32  1  0  0  0  0
 27 26  1  0  0  0  0
 28 27  2  0  0  0  0
 29 81  1  0  0  0  0
 29 28  1  0  0  0  0
 29 30  1  0  0  0  0
 30 83  1  0  0  0  0
 31 86  1  0  0  0  0
 31 30  1  0  0  0  0
 31 32  1  0  0  0  0
 32 87  1  0  0  0  0
 33 28  1  0  0  0  0
 33 34  1  0  0  0  0
 34 59  2  0  0  0  0
 35 37  2  0  0  0  0
 35 34  1  0  0  0  0
 36 35  1  0  0  0  0
 37 57  1  0  0  0  0
 38 39  1  0  0  0  0
 38 51  1  0  0  0  0
 38 37  1  0  0  0  0
 39 44  2  0  0  0  0
 40 41  2  0  0  0  0
 40 39  1  0  0  0  0
 41 42  1  0  0  0  0
 42 91  1  0  0  0  0
 42 43  2  0  0  0  0
 43 92  1  0  0  0  0
 44 43  1  0  0  0  0
 44 93  1  0  0  0  0
 45 38  1  0  0  0  0
 46 45  1  0  0  0  0
 46 94  1  0  0  0  0
 47 46  2  0  0  0  0
 48 49  2  0  0  0  0
 48 47  1  0  0  0  0
 49 50  1  0  0  0  0
 50 98  1  0  0  0  0
 50 45  2  0  0  0  0
 51 56  1  0  0  0  0
 52 51  2  0  0  0  0
 52 53  1  0  0  0  0
 53 54  2  0  0  0  0
 54 55  1  0  0  0  0
 54101  1  0  0  0  0
 55102  1  0  0  0  0
 56103  1  0  0  0  0
 56 55  2  0  0  0  0
 57104  1  0  0  0  0
 57 58  2  0  0  0  0
 58 63  1  0  0  0  0
 59 58  1  0  0  0  0
 59 60  1  0  0  0  0
 60105  1  0  0  0  0
 60 61  1  0  0  0  0
 61108  1  0  0  0  0
 61107  1  0  0  0  0
 62 61  1  0  0  0  0
 62109  1  0  0  0  0
 63112  1  0  0  0  0
 63 62  1  0  0  0  0
 68 12  1  0  0  0  0
 69 13  1  0  0  0  0
 71 16  1  0  0  0  0
 72 17  1  0  0  0  0
 73 18  1  0  0  0  0
 74 19  1  0  0  0  0
 78 24  1  0  0  0  0
 79 25  1  0  0  0  0
 82 29  1  0  0  0  0
 84 30  1  0  0  0  0
 85 31  1  0  0  0  0
 88 32  1  0  0  0  0
 89 40  1  0  0  0  0
 90 41  1  0  0  0  0
 95 47  1  0  0  0  0
 96 48  1  0  0  0  0
 97 49  1  0  0  0  0
 99 52  1  0  0  0  0
100 53  1  0  0  0  0
106 60  1  0  0  0  0
110 62  1  0  0  0  0
111 63  1  0  0  0  0
M  END
$$$$
