O=P1(O)OC2=C(C3=CC=C(C4CCCCC4)C=C3)C=C5C(CCCC5)=C2C6=C(O1)C(C7=CC=C(C8CCCCC8)C=C7)=CC9=C6CCCC9
 OpenBabel09032010383D

 98106  0  0  0  0  0  0  0  0999 V2000
    0.5029    1.4269    1.4232 O   0  0  0  0  0  0  0  0  0  0  0  0
    0.0094    0.5387    0.3234 P   0  0  0  0  0  0  0  0  0  0  0  0
   -0.6461    1.3479   -0.9038 O   0  0  0  0  0  0  0  0  0  0  0  0
   -1.1668   -0.4717    0.7648 O   0  0  0  0  0  0  0  0  0  0  0  0
   -1.4993   -1.5389   -0.0416 C   0  0  0  0  0  0  0  0  0  0  0  0
   -2.7973   -1.5382   -0.6023 C   0  0  0  0  0  0  0  0  0  0  0  0
   -3.7665   -0.4498   -0.3682 C   0  0  0  0  0  0  0  0  0  0  0  0
   -4.3454    0.2441   -1.4427 C   0  0  0  0  0  0  0  0  0  0  0  0
   -5.2631    1.2781   -1.2268 C   0  0  0  0  0  0  0  0  0  0  0  0
   -5.6334    1.6472    0.0725 C   0  0  0  0  0  0  0  0  0  0  0  0
   -6.6151    2.7753    0.3349 C   0  0  0  0  0  0  0  0  0  0  0  0
   -7.9511    2.5871   -0.3987 C   0  0  0  0  0  0  0  0  0  0  0  0
   -8.9778    3.6439    0.0199 C   0  0  0  0  0  0  0  0  0  0  0  0
   -8.3523    4.9824    0.4173 C   0  0  0  0  0  0  0  0  0  0  0  0
   -7.0336    5.2297   -0.3019 C   0  0  0  0  0  0  0  0  0  0  0  0
   -5.9938    4.1508    0.0159 C   0  0  0  0  0  0  0  0  0  0  0  0
   -5.0593    0.9583    1.1482 C   0  0  0  0  0  0  0  0  0  0  0  0
   -4.1442   -0.0767    0.9296 C   0  0  0  0  0  0  0  0  0  0  0  0
   -3.1559   -2.6192   -1.4141 C   0  0  0  0  0  0  0  0  0  0  0  0
   -2.2442   -3.6363   -1.6953 C   0  0  0  0  0  0  0  0  0  0  0  0
   -0.9501   -3.6148   -1.1256 C   0  0  0  0  0  0  0  0  0  0  0  0
   -0.0074   -4.7114   -1.6017 C   0  0  0  0  0  0  0  0  0  0  0  0
   -0.1119   -4.8884   -3.1180 C   0  0  0  0  0  0  0  0  0  0  0  0
   -1.5446   -5.0912   -3.6215 C   0  0  0  0  0  0  0  0  0  0  0  0
   -2.6260   -4.7929   -2.5836 C   0  0  0  0  0  0  0  0  0  0  0  0
   -0.5588   -2.5881   -0.2194 C   0  0  0  0  0  0  0  0  0  0  0  0
    0.7209   -2.5737    0.4429 C   0  0  0  0  0  0  0  0  0  0  0  0
    1.5849   -1.4653    0.2762 C   0  0  0  0  0  0  0  0  0  0  0  0
    1.1254   -0.3645   -0.4124 O   0  0  0  0  0  0  0  0  0  0  0  0
    2.9159   -1.4397    0.7265 C   0  0  0  0  0  0  0  0  0  0  0  0
    3.8187   -0.3151    0.4523 C   0  0  0  0  0  0  0  0  0  0  0  0
    3.8042    0.8350    1.2505 C   0  0  0  0  0  0  0  0  0  0  0  0
    4.6687    1.9021    0.9867 C   0  0  0  0  0  0  0  0  0  0  0  0
    5.5750    1.8446   -0.0807 C   0  0  0  0  0  0  0  0  0  0  0  0
    6.5192    2.9930   -0.3897 C   0  0  0  0  0  0  0  0  0  0  0  0
    5.7562    4.2723   -0.7755 C   0  0  0  0  0  0  0  0  0  0  0  0
    6.7140    5.4192   -1.0938 C   0  0  0  0  0  0  0  0  0  0  0  0
    7.6852    5.6770    0.0546 C   0  0  0  0  0  0  0  0  0  0  0  0
    8.4448    4.4125    0.4451 C   0  0  0  0  0  0  0  0  0  0  0  0
    7.4941    3.2616    0.7701 C   0  0  0  0  0  0  0  0  0  0  0  0
    5.5930    0.6921   -0.8778 C   0  0  0  0  0  0  0  0  0  0  0  0
    4.7265   -0.3734   -0.6138 C   0  0  0  0  0  0  0  0  0  0  0  0
    3.3850   -2.5423    1.4423 C   0  0  0  0  0  0  0  0  0  0  0  0
    2.5470   -3.6232    1.7450 C   0  0  0  0  0  0  0  0  0  0  0  0
    1.2174   -3.6441    1.2556 C   0  0  0  0  0  0  0  0  0  0  0  0
    0.2711   -4.7157    1.7824 C   0  0  0  0  0  0  0  0  0  0  0  0
    0.9767   -5.9867    2.2464 C   0  0  0  0  0  0  0  0  0  0  0  0
    2.0837   -5.6368    3.2263 C   0  0  0  0  0  0  0  0  0  0  0  0
    3.1308   -4.7646    2.5461 C   0  0  0  0  0  0  0  0  0  0  0  0
   -1.0232    0.7542   -1.5746 H   0  0  0  0  0  0  0  0  0  0  0  0
   -4.0800   -0.0088   -2.4671 H   0  0  0  0  0  0  0  0  0  0  0  0
   -5.6778    1.7989   -2.0868 H   0  0  0  0  0  0  0  0  0  0  0  0
   -6.8501    2.7667    1.4095 H   0  0  0  0  0  0  0  0  0  0  0  0
   -8.3636    1.5879   -0.2116 H   0  0  0  0  0  0  0  0  0  0  0  0
   -7.7992    2.6568   -1.4836 H   0  0  0  0  0  0  0  0  0  0  0  0
   -9.6827    3.7946   -0.8068 H   0  0  0  0  0  0  0  0  0  0  0  0
   -9.5722    3.2704    0.8626 H   0  0  0  0  0  0  0  0  0  0  0  0
   -9.0580    5.7941    0.2073 H   0  0  0  0  0  0  0  0  0  0  0  0
   -8.1780    4.9947    1.5007 H   0  0  0  0  0  0  0  0  0  0  0  0
   -6.6338    6.2142   -0.0336 H   0  0  0  0  0  0  0  0  0  0  0  0
   -7.2141    5.2509   -1.3841 H   0  0  0  0  0  0  0  0  0  0  0  0
   -5.3927    4.4674    0.8786 H   0  0  0  0  0  0  0  0  0  0  0  0
   -5.2925    4.0958   -0.8262 H   0  0  0  0  0  0  0  0  0  0  0  0
   -5.3145    1.2218    2.1725 H   0  0  0  0  0  0  0  0  0  0  0  0
   -3.7214   -0.5906    1.7912 H   0  0  0  0  0  0  0  0  0  0  0  0
   -4.1570   -2.6634   -1.8411 H   0  0  0  0  0  0  0  0  0  0  0  0
    1.0362   -4.4810   -1.3689 H   0  0  0  0  0  0  0  0  0  0  0  0
   -0.2613   -5.6521   -1.0997 H   0  0  0  0  0  0  0  0  0  0  0  0
    0.3029   -3.9959   -3.6061 H   0  0  0  0  0  0  0  0  0  0  0  0
    0.5157   -5.7282   -3.4388 H   0  0  0  0  0  0  0  0  0  0  0  0
   -1.6721   -6.1185   -3.9838 H   0  0  0  0  0  0  0  0  0  0  0  0
   -1.6948   -4.4457   -4.4969 H   0  0  0  0  0  0  0  0  0  0  0  0
   -2.7855   -5.6726   -1.9470 H   0  0  0  0  0  0  0  0  0  0  0  0
   -3.5750   -4.6014   -3.0982 H   0  0  0  0  0  0  0  0  0  0  0  0
    3.1077    0.9153    2.0837 H   0  0  0  0  0  0  0  0  0  0  0  0
    4.6169    2.7815    1.6246 H   0  0  0  0  0  0  0  0  0  0  0  0
    7.1274    2.7066   -1.2600 H   0  0  0  0  0  0  0  0  0  0  0  0
    5.0892    4.5847    0.0379 H   0  0  0  0  0  0  0  0  0  0  0  0
    5.1174    4.0811   -1.6467 H   0  0  0  0  0  0  0  0  0  0  0  0
    7.2788    5.1812   -2.0035 H   0  0  0  0  0  0  0  0  0  0  0  0
    6.1412    6.3296   -1.3031 H   0  0  0  0  0  0  0  0  0  0  0  0
    8.3962    6.4598   -0.2330 H   0  0  0  0  0  0  0  0  0  0  0  0
    7.1308    6.0523    0.9236 H   0  0  0  0  0  0  0  0  0  0  0  0
    9.0826    4.6189    1.3120 H   0  0  0  0  0  0  0  0  0  0  0  0
    9.1087    4.1166   -0.3765 H   0  0  0  0  0  0  0  0  0  0  0  0
    8.0785    2.3587    0.9870 H   0  0  0  0  0  0  0  0  0  0  0  0
    6.9451    3.5060    1.6883 H   0  0  0  0  0  0  0  0  0  0  0  0
    6.2797    0.6128   -1.7173 H   0  0  0  0  0  0  0  0  0  0  0  0
    4.7588   -1.2531   -1.2529 H   0  0  0  0  0  0  0  0  0  0  0  0
    4.4154   -2.5442    1.7975 H   0  0  0  0  0  0  0  0  0  0  0  0
   -0.2713   -4.2779    2.6311 H   0  0  0  0  0  0  0  0  0  0  0  0
   -0.4831   -5.0061    1.0515 H   0  0  0  0  0  0  0  0  0  0  0  0
    0.2520   -6.6553    2.7246 H   0  0  0  0  0  0  0  0  0  0  0  0
    1.3940   -6.5227    1.3848 H   0  0  0  0  0  0  0  0  0  0  0  0
    1.6592   -5.1072    4.0886 H   0  0  0  0  0  0  0  0  0  0  0  0
    2.5543   -6.5489    3.6099 H   0  0  0  0  0  0  0  0  0  0  0  0
    3.7283   -5.3817    1.8629 H   0  0  0  0  0  0  0  0  0  0  0  0
    3.8101   -4.3747    3.3140 H   0  0  0  0  0  0  0  0  0  0  0  0
  2  4  1  0  0  0  0
  2  1  2  0  0  0  0
  3  2  1  0  0  0  0
  5  4  1  0  0  0  0
  6  7  1  0  0  0  0
  6  5  2  0  0  0  0
  7 18  2  0  0  0  0
  8  9  2  0  0  0  0
  8  7  1  0  0  0  0
  9 10  1  0  0  0  0
 10 11  1  0  0  0  0
 10 17  2  0  0  0  0
 11 53  1  0  0  0  0
 12 54  1  0  0  0  0
 12 13  1  0  0  0  0
 12 11  1  0  0  0  0
 13 14  1  0  0  0  0
 13 57  1  0  0  0  0
 14 59  1  0  0  0  0
 15 60  1  0  0  0  0
 15 16  1  0  0  0  0
 15 14  1  0  0  0  0
 16 11  1  0  0  0  0
 16 62  1  0  0  0  0
 17 64  1  0  0  0  0
 18 17  1  0  0  0  0
 18 65  1  0  0  0  0
 19  6  1  0  0  0  0
 20 19  2  0  0  0  0
 20 21  1  0  0  0  0
 21 26  2  0  0  0  0
 22 67  1  0  0  0  0
 22 21  1  0  0  0  0
 22 68  1  0  0  0  0
 23 22  1  0  0  0  0
 24 23  1  0  0  0  0
 24 25  1  0  0  0  0
 25 73  1  0  0  0  0
 25 20  1  0  0  0  0
 26  5  1  0  0  0  0
 26 27  1  0  0  0  0
 27 45  1  0  0  0  0
 28 27  2  0  0  0  0
 28 30  1  0  0  0  0
 29 28  1  0  0  0  0
 29  2  1  0  0  0  0
 30 43  2  0  0  0  0
 31 30  1  0  0  0  0
 31 32  2  0  0  0  0
 32 75  1  0  0  0  0
 33 32  1  0  0  0  0
 33 76  1  0  0  0  0
 34 33  2  0  0  0  0
 35 34  1  0  0  0  0
 35 40  1  0  0  0  0
 36 35  1  0  0  0  0
 36 78  1  0  0  0  0
 37 36  1  0  0  0  0
 37 38  1  0  0  0  0
 38 39  1  0  0  0  0
 38 83  1  0  0  0  0
 39 40  1  0  0  0  0
 39 84  1  0  0  0  0
 40 86  1  0  0  0  0
 40 87  1  0  0  0  0
 41 42  2  0  0  0  0
 41 34  1  0  0  0  0
 42 31  1  0  0  0  0
 43 44  1  0  0  0  0
 43 90  1  0  0  0  0
 44 49  1  0  0  0  0
 45 44  2  0  0  0  0
 45 46  1  0  0  0  0
 46 47  1  0  0  0  0
 46 91  1  0  0  0  0
 47 93  1  0  0  0  0
 47 48  1  0  0  0  0
 48 96  1  0  0  0  0
 48 95  1  0  0  0  0
 49 48  1  0  0  0  0
 49 98  1  0  0  0  0
 50  3  1  0  0  0  0
 51  8  1  0  0  0  0
 52  9  1  0  0  0  0
 55 12  1  0  0  0  0
 56 13  1  0  0  0  0
 58 14  1  0  0  0  0
 61 15  1  0  0  0  0
 63 16  1  0  0  0  0
 66 19  1  0  0  0  0
 69 23  1  0  0  0  0
 70 23  1  0  0  0  0
 71 24  1  0  0  0  0
 72 24  1  0  0  0  0
 74 25  1  0  0  0  0
 77 35  1  0  0  0  0
 79 36  1  0  0  0  0
 80 37  1  0  0  0  0
 81 37  1  0  0  0  0
 82 38  1  0  0  0  0
 85 39  1  0  0  0  0
 88 41  1  0  0  0  0
 89 42  1  0  0  0  0
 92 46  1  0  0  0  0
 94 47  1  0  0  0  0
 97 49  1  0  0  0  0
M  END
$$$$
