O=P1(O)OC2=C(C3=CC(C)=C(OC(C)C)C(C)=C3)C=C4C(C=CC=C4)=C2C5=C(O1)C(C6=CC(C)=C(OC(C)C)C(C)=C6)=CC7=C5C=CC=C7
 OpenBabel09032010373D

 90 96  0  0  0  0  0  0  0  0999 V2000
    0.8627    0.6810    1.7516 O   0  0  0  0  0  0  0  0  0  0  0  0
    0.2665    0.3001    0.4326 P   0  0  0  0  0  0  0  0  0  0  0  0
   -0.5319    1.5280   -0.2338 O   0  0  0  0  0  0  0  0  0  0  0  0
    1.2943   -0.1547   -0.7220 O   0  0  0  0  0  0  0  0  0  0  0  0
    1.7649   -1.4496   -0.6756 C   0  0  0  0  0  0  0  0  0  0  0  0
    3.1282   -1.6217   -0.3823 C   0  0  0  0  0  0  0  0  0  0  0  0
    4.0292   -0.4901   -0.1298 C   0  0  0  0  0  0  0  0  0  0  0  0
    4.0929    0.1106    1.1342 C   0  0  0  0  0  0  0  0  0  0  0  0
    4.9579    1.1868    1.3909 C   0  0  0  0  0  0  0  0  0  0  0  0
    5.0043    1.7611    2.7779 C   0  0  0  0  0  0  0  0  0  0  0  0
    5.7359    1.6975    0.3382 C   0  0  0  0  0  0  0  0  0  0  0  0
    6.5754    2.7658    0.5381 O   0  0  0  0  0  0  0  0  0  0  0  0
    5.8753    4.0227    0.5936 C   0  0  0  0  0  0  0  0  0  0  0  0
    6.5866    4.8887    1.6298 C   0  0  0  0  0  0  0  0  0  0  0  0
    5.9230    4.7026   -0.7718 C   0  0  0  0  0  0  0  0  0  0  0  0
    5.7470    1.0651   -0.9151 C   0  0  0  0  0  0  0  0  0  0  0  0
    6.6332    1.5221   -2.0384 C   0  0  0  0  0  0  0  0  0  0  0  0
    4.8708   -0.0085   -1.1418 C   0  0  0  0  0  0  0  0  0  0  0  0
    3.6323   -2.9226   -0.3465 C   0  0  0  0  0  0  0  0  0  0  0  0
    2.8077   -4.0298   -0.5623 C   0  0  0  0  0  0  0  0  0  0  0  0
    1.4321   -3.8472   -0.8670 C   0  0  0  0  0  0  0  0  0  0  0  0
    0.6540   -5.0281   -0.9789 C   0  0  0  0  0  0  0  0  0  0  0  0
    1.2067   -6.3068   -0.8653 C   0  0  0  0  0  0  0  0  0  0  0  0
    2.5614   -6.4527   -0.6154 C   0  0  0  0  0  0  0  0  0  0  0  0
    3.3545   -5.3201   -0.4578 C   0  0  0  0  0  0  0  0  0  0  0  0
    0.8868   -2.5175   -0.9951 C   0  0  0  0  0  0  0  0  0  0  0  0
   -0.4638   -2.2368   -1.4434 C   0  0  0  0  0  0  0  0  0  0  0  0
   -1.3147   -1.4099   -0.6681 C   0  0  0  0  0  0  0  0  0  0  0  0
   -0.8403   -0.8671    0.5058 O   0  0  0  0  0  0  0  0  0  0  0  0
   -2.6598   -1.1439   -0.9839 C   0  0  0  0  0  0  0  0  0  0  0  0
   -3.5054   -0.2692   -0.1539 C   0  0  0  0  0  0  0  0  0  0  0  0
   -3.8343   -0.6117    1.1654 C   0  0  0  0  0  0  0  0  0  0  0  0
   -4.6189    0.2316    1.9697 C   0  0  0  0  0  0  0  0  0  0  0  0
   -4.8875   -0.1677    3.3928 C   0  0  0  0  0  0  0  0  0  0  0  0
   -5.1313    1.4158    1.4137 C   0  0  0  0  0  0  0  0  0  0  0  0
   -5.9164    2.2601    2.1588 O   0  0  0  0  0  0  0  0  0  0  0  0
   -7.2681    1.7863    2.3050 C   0  0  0  0  0  0  0  0  0  0  0  0
   -8.1658    2.4548    1.2678 C   0  0  0  0  0  0  0  0  0  0  0  0
   -7.7279    2.1637    3.7106 C   0  0  0  0  0  0  0  0  0  0  0  0
   -4.7625    1.8159    0.1202 C   0  0  0  0  0  0  0  0  0  0  0  0
   -5.2099    3.1203   -0.4764 C   0  0  0  0  0  0  0  0  0  0  0  0
   -3.9741    0.9535   -0.6582 C   0  0  0  0  0  0  0  0  0  0  0  0
   -3.1806   -1.7191   -2.1436 C   0  0  0  0  0  0  0  0  0  0  0  0
   -2.3893   -2.5005   -2.9903 C   0  0  0  0  0  0  0  0  0  0  0  0
   -1.0265   -2.7474   -2.6710 C   0  0  0  0  0  0  0  0  0  0  0  0
   -0.2772   -3.4568   -3.6451 C   0  0  0  0  0  0  0  0  0  0  0  0
   -0.8476   -3.9542   -4.8200 C   0  0  0  0  0  0  0  0  0  0  0  0
   -2.1918   -3.7419   -5.0770 C   0  0  0  0  0  0  0  0  0  0  0  0
   -2.9549   -3.0124   -4.1706 C   0  0  0  0  0  0  0  0  0  0  0  0
   -1.0694    1.9846    0.4394 H   0  0  0  0  0  0  0  0  0  0  0  0
    3.4596   -0.2688    1.9358 H   0  0  0  0  0  0  0  0  0  0  0  0
    4.6765    1.0246    3.5198 H   0  0  0  0  0  0  0  0  0  0  0  0
    6.0261    2.0441    3.0489 H   0  0  0  0  0  0  0  0  0  0  0  0
    4.3503    2.6347    2.8520 H   0  0  0  0  0  0  0  0  0  0  0  0
    4.8274    3.9036    0.8961 H   0  0  0  0  0  0  0  0  0  0  0  0
    6.1142    5.8719    1.7185 H   0  0  0  0  0  0  0  0  0  0  0  0
    7.6413    5.0284    1.3673 H   0  0  0  0  0  0  0  0  0  0  0  0
    6.5696    4.4075    2.6128 H   0  0  0  0  0  0  0  0  0  0  0  0
    5.3362    4.1388   -1.5031 H   0  0  0  0  0  0  0  0  0  0  0  0
    5.5135    5.7166   -0.7254 H   0  0  0  0  0  0  0  0  0  0  0  0
    6.9488    4.7524   -1.1528 H   0  0  0  0  0  0  0  0  0  0  0  0
    6.9764    0.6654   -2.6289 H   0  0  0  0  0  0  0  0  0  0  0  0
    7.5307    2.0275   -1.6688 H   0  0  0  0  0  0  0  0  0  0  0  0
    6.0864    2.2025   -2.6976 H   0  0  0  0  0  0  0  0  0  0  0  0
    4.8448   -0.4792   -2.1236 H   0  0  0  0  0  0  0  0  0  0  0  0
    4.6878   -3.0682   -0.1168 H   0  0  0  0  0  0  0  0  0  0  0  0
   -0.4198   -4.9676   -1.1477 H   0  0  0  0  0  0  0  0  0  0  0  0
    0.5712   -7.1824   -0.9677 H   0  0  0  0  0  0  0  0  0  0  0  0
    2.9990   -7.4432   -0.5252 H   0  0  0  0  0  0  0  0  0  0  0  0
    4.4120   -5.4545   -0.2368 H   0  0  0  0  0  0  0  0  0  0  0  0
   -3.4567   -1.5462    1.5799 H   0  0  0  0  0  0  0  0  0  0  0  0
   -4.1224   -0.8617    3.7579 H   0  0  0  0  0  0  0  0  0  0  0  0
   -4.8601    0.7040    4.0539 H   0  0  0  0  0  0  0  0  0  0  0  0
   -5.8612   -0.6592    3.4747 H   0  0  0  0  0  0  0  0  0  0  0  0
   -7.3419    0.6974    2.1922 H   0  0  0  0  0  0  0  0  0  0  0  0
   -8.0462    3.5435    1.2846 H   0  0  0  0  0  0  0  0  0  0  0  0
   -7.9052    2.1190    0.2597 H   0  0  0  0  0  0  0  0  0  0  0  0
   -9.2194    2.2123    1.4387 H   0  0  0  0  0  0  0  0  0  0  0  0
   -7.6636    3.2463    3.8672 H   0  0  0  0  0  0  0  0  0  0  0  0
   -7.0850    1.6993    4.4650 H   0  0  0  0  0  0  0  0  0  0  0  0
   -8.7588    1.8439    3.8912 H   0  0  0  0  0  0  0  0  0  0  0  0
   -6.1082    2.9695   -1.0820 H   0  0  0  0  0  0  0  0  0  0  0  0
   -5.4195    3.8694    0.2933 H   0  0  0  0  0  0  0  0  0  0  0  0
   -4.4246    3.5389   -1.1156 H   0  0  0  0  0  0  0  0  0  0  0  0
   -3.7005    1.2509   -1.6705 H   0  0  0  0  0  0  0  0  0  0  0  0
   -4.2229   -1.5312   -2.3999 H   0  0  0  0  0  0  0  0  0  0  0  0
    0.7896   -3.6247   -3.5074 H   0  0  0  0  0  0  0  0  0  0  0  0
   -0.2331   -4.4999   -5.5312 H   0  0  0  0  0  0  0  0  0  0  0  0
   -2.6428   -4.1242   -5.9886 H   0  0  0  0  0  0  0  0  0  0  0  0
   -4.0027   -2.8320   -4.4039 H   0  0  0  0  0  0  0  0  0  0  0  0
  2 29  1  0  0  0  0
  2  1  2  0  0  0  0
  3  2  1  0  0  0  0
  3 50  1  0  0  0  0
  4  5  1  0  0  0  0
  4  2  1  0  0  0  0
  5  6  2  0  0  0  0
  6 19  1  0  0  0  0
  6  7  1  0  0  0  0
  7  8  2  0  0  0  0
  8  9  1  0  0  0  0
  8 51  1  0  0  0  0
  9 10  1  0  0  0  0
 10 54  1  0  0  0  0
 10 53  1  0  0  0  0
 10 52  1  0  0  0  0
 11 12  1  0  0  0  0
 11  9  2  0  0  0  0
 12 13  1  0  0  0  0
 13 55  1  0  0  0  0
 13 14  1  0  0  0  0
 14 56  1  0  0  0  0
 14 58  1  0  0  0  0
 15 60  1  0  0  0  0
 15 13  1  0  0  0  0
 16 11  1  0  0  0  0
 17 63  1  0  0  0  0
 17 16  1  0  0  0  0
 18 16  2  0  0  0  0
 18  7  1  0  0  0  0
 19 66  1  0  0  0  0
 20 25  1  0  0  0  0
 20 19  2  0  0  0  0
 21 20  1  0  0  0  0
 22 21  1  0  0  0  0
 22 23  2  0  0  0  0
 23 24  1  0  0  0  0
 24 69  1  0  0  0  0
 24 25  2  0  0  0  0
 25 70  1  0  0  0  0
 26 21  2  0  0  0  0
 26  5  1  0  0  0  0
 27 26  1  0  0  0  0
 27 28  2  0  0  0  0
 28 29  1  0  0  0  0
 30 28  1  0  0  0  0
 30 31  1  0  0  0  0
 31 32  1  0  0  0  0
 32 71  1  0  0  0  0
 32 33  2  0  0  0  0
 33 34  1  0  0  0  0
 34 74  1  0  0  0  0
 34 72  1  0  0  0  0
 34 73  1  0  0  0  0
 35 33  1  0  0  0  0
 35 36  1  0  0  0  0
 36 37  1  0  0  0  0
 37 39  1  0  0  0  0
 38 76  1  0  0  0  0
 38 78  1  0  0  0  0
 38 37  1  0  0  0  0
 39 79  1  0  0  0  0
 39 81  1  0  0  0  0
 39 80  1  0  0  0  0
 40 35  2  0  0  0  0
 41 40  1  0  0  0  0
 41 83  1  0  0  0  0
 42 31  2  0  0  0  0
 42 40  1  0  0  0  0
 43 30  2  0  0  0  0
 44 45  1  0  0  0  0
 44 43  1  0  0  0  0
 45 27  1  0  0  0  0
 46 87  1  0  0  0  0
 46 45  2  0  0  0  0
 47 46  1  0  0  0  0
 48 47  2  0  0  0  0
 48 49  1  0  0  0  0
 49 44  2  0  0  0  0
 57 14  1  0  0  0  0
 59 15  1  0  0  0  0
 61 15  1  0  0  0  0
 62 17  1  0  0  0  0
 64 17  1  0  0  0  0
 65 18  1  0  0  0  0
 67 22  1  0  0  0  0
 68 23  1  0  0  0  0
 75 37  1  0  0  0  0
 77 38  1  0  0  0  0
 82 41  1  0  0  0  0
 84 41  1  0  0  0  0
 85 42  1  0  0  0  0
 86 43  1  0  0  0  0
 88 47  1  0  0  0  0
 89 48  1  0  0  0  0
 90 49  1  0  0  0  0
M  END
$$$$
