O=P1(O)OC2=C(CC3=CC=C(OC)C=C3)C=C4C(CCCC4)=C2C5=C(O1)C(CC6=CC=C(OC)C=C6)=CC7=C5CCCC7
 OpenBabel09032010373D

 80 86  0  0  0  0  0  0  0  0999 V2000
   -0.0446    4.1332    0.5585 O   0  0  0  0  0  0  0  0  0  0  0  0
    0.2370    2.7949    1.1699 P   0  0  0  0  0  0  0  0  0  0  0  0
    0.6743    2.9810    2.7083 O   0  0  0  0  0  0  0  0  0  0  0  0
    1.4649    1.9838    0.5114 O   0  0  0  0  0  0  0  0  0  0  0  0
    1.6366    0.6588    0.8359 C   0  0  0  0  0  0  0  0  0  0  0  0
    2.8241    0.3090    1.4956 C   0  0  0  0  0  0  0  0  0  0  0  0
    3.8953    1.3249    1.8259 C   0  0  0  0  0  0  0  0  0  0  0  0
    5.0947    1.2642    0.9072 C   0  0  0  0  0  0  0  0  0  0  0  0
    6.3033    0.7099    1.3449 C   0  0  0  0  0  0  0  0  0  0  0  0
    7.4059    0.6550    0.4887 C   0  0  0  0  0  0  0  0  0  0  0  0
    7.3232    1.1485   -0.8149 C   0  0  0  0  0  0  0  0  0  0  0  0
    8.4747    1.0328   -1.5441 O   0  0  0  0  0  0  0  0  0  0  0  0
    8.4398    1.5206   -2.8792 C   0  0  0  0  0  0  0  0  0  0  0  0
    6.1214    1.6994   -1.2581 C   0  0  0  0  0  0  0  0  0  0  0  0
    5.0147    1.7557   -0.4028 C   0  0  0  0  0  0  0  0  0  0  0  0
    3.0125   -1.0280    1.8522 C   0  0  0  0  0  0  0  0  0  0  0  0
    2.0235   -1.9898    1.6106 C   0  0  0  0  0  0  0  0  0  0  0  0
    0.8262   -1.6169    0.9556 C   0  0  0  0  0  0  0  0  0  0  0  0
   -0.3127   -2.6252    0.8649 C   0  0  0  0  0  0  0  0  0  0  0  0
   -0.1754   -3.8031    1.8285 C   0  0  0  0  0  0  0  0  0  0  0  0
    1.2155   -4.4026    1.7081 C   0  0  0  0  0  0  0  0  0  0  0  0
    2.2582   -3.3830    2.1492 C   0  0  0  0  0  0  0  0  0  0  0  0
    0.6495   -0.2851    0.4636 C   0  0  0  0  0  0  0  0  0  0  0  0
   -0.4753    0.1104   -0.3385 C   0  0  0  0  0  0  0  0  0  0  0  0
   -1.3600    1.1106    0.1257 C   0  0  0  0  0  0  0  0  0  0  0  0
   -1.0308    1.8010    1.2674 O   0  0  0  0  0  0  0  0  0  0  0  0
   -2.5672    1.4300   -0.5108 C   0  0  0  0  0  0  0  0  0  0  0  0
   -3.5271    2.4624    0.0429 C   0  0  0  0  0  0  0  0  0  0  0  0
   -4.9123    1.9249    0.3378 C   0  0  0  0  0  0  0  0  0  0  0  0
   -5.1059    0.9451    1.3219 C   0  0  0  0  0  0  0  0  0  0  0  0
   -6.3850    0.4438    1.5933 C   0  0  0  0  0  0  0  0  0  0  0  0
   -7.4893    0.9187    0.8867 C   0  0  0  0  0  0  0  0  0  0  0  0
   -8.7865    0.5157    1.0492 O   0  0  0  0  0  0  0  0  0  0  0  0
   -9.0278   -0.5087    2.0058 C   0  0  0  0  0  0  0  0  0  0  0  0
   -7.3015    1.9009   -0.0880 C   0  0  0  0  0  0  0  0  0  0  0  0
   -6.0264    2.4025   -0.3625 C   0  0  0  0  0  0  0  0  0  0  0  0
   -2.8629    0.7852   -1.7147 C   0  0  0  0  0  0  0  0  0  0  0  0
   -1.9712   -0.1311   -2.2884 C   0  0  0  0  0  0  0  0  0  0  0  0
   -0.7624   -0.4449   -1.6245 C   0  0  0  0  0  0  0  0  0  0  0  0
    0.2748   -1.3033   -2.3368 C   0  0  0  0  0  0  0  0  0  0  0  0
    0.0569   -1.4118   -3.8453 C   0  0  0  0  0  0  0  0  0  0  0  0
   -1.3871   -1.7918   -4.1278 C   0  0  0  0  0  0  0  0  0  0  0  0
   -2.3171   -0.6820   -3.6533 C   0  0  0  0  0  0  0  0  0  0  0  0
    0.3813    3.8555    3.0236 H   0  0  0  0  0  0  0  0  0  0  0  0
    4.2118    1.1706    2.8666 H   0  0  0  0  0  0  0  0  0  0  0  0
    3.4954    2.3463    1.8154 H   0  0  0  0  0  0  0  0  0  0  0  0
    6.3979    0.3165    2.3540 H   0  0  0  0  0  0  0  0  0  0  0  0
    8.3389    0.2223    0.8407 H   0  0  0  0  0  0  0  0  0  0  0  0
    9.4273    1.3561   -3.3210 H   0  0  0  0  0  0  0  0  0  0  0  0
    7.7098    0.9701   -3.4818 H   0  0  0  0  0  0  0  0  0  0  0  0
    8.2405    2.5971   -2.9013 H   0  0  0  0  0  0  0  0  0  0  0  0
    6.0068    2.0930   -2.2622 H   0  0  0  0  0  0  0  0  0  0  0  0
    4.0835    2.1851   -0.7681 H   0  0  0  0  0  0  0  0  0  0  0  0
    3.9286   -1.3212    2.3633 H   0  0  0  0  0  0  0  0  0  0  0  0
   -0.3678   -3.0305   -0.1467 H   0  0  0  0  0  0  0  0  0  0  0  0
   -1.2663   -2.1290    1.0807 H   0  0  0  0  0  0  0  0  0  0  0  0
   -0.9344   -4.5584    1.5958 H   0  0  0  0  0  0  0  0  0  0  0  0
   -0.3539   -3.4726    2.8595 H   0  0  0  0  0  0  0  0  0  0  0  0
    1.2978   -5.3056    2.3231 H   0  0  0  0  0  0  0  0  0  0  0  0
    1.4007   -4.7034    0.6691 H   0  0  0  0  0  0  0  0  0  0  0  0
    3.2502   -3.7352    1.8415 H   0  0  0  0  0  0  0  0  0  0  0  0
    2.2538   -3.3244    3.2453 H   0  0  0  0  0  0  0  0  0  0  0  0
   -3.5846    3.2877   -0.6792 H   0  0  0  0  0  0  0  0  0  0  0  0
   -3.1461    2.9149    0.9661 H   0  0  0  0  0  0  0  0  0  0  0  0
   -4.2557    0.5600    1.8819 H   0  0  0  0  0  0  0  0  0  0  0  0
   -6.4803   -0.3160    2.3614 H   0  0  0  0  0  0  0  0  0  0  0  0
  -10.1006   -0.7240    2.0018 H   0  0  0  0  0  0  0  0  0  0  0  0
   -8.7581   -0.1774    3.0140 H   0  0  0  0  0  0  0  0  0  0  0  0
   -8.5015   -1.4309    1.7383 H   0  0  0  0  0  0  0  0  0  0  0  0
   -8.1579    2.2788   -0.6411 H   0  0  0  0  0  0  0  0  0  0  0  0
   -5.9133    3.1661   -1.1284 H   0  0  0  0  0  0  0  0  0  0  0  0
   -3.7873    1.0270   -2.2386 H   0  0  0  0  0  0  0  0  0  0  0  0
    0.2628   -2.3146   -1.9267 H   0  0  0  0  0  0  0  0  0  0  0  0
    1.2762   -0.8873   -2.1742 H   0  0  0  0  0  0  0  0  0  0  0  0
    0.2962   -0.4582   -4.3326 H   0  0  0  0  0  0  0  0  0  0  0  0
    0.7348   -2.1657   -4.2610 H   0  0  0  0  0  0  0  0  0  0  0  0
   -1.6303   -2.7306   -3.6142 H   0  0  0  0  0  0  0  0  0  0  0  0
   -1.5346   -1.9650   -5.1996 H   0  0  0  0  0  0  0  0  0  0  0  0
   -2.2735    0.1474   -4.3711 H   0  0  0  0  0  0  0  0  0  0  0  0
   -3.3464   -1.0606   -3.6486 H   0  0  0  0  0  0  0  0  0  0  0  0
  1  2  2  0  0  0  0
  2 26  1  0  0  0  0
  2  3  1  0  0  0  0
  3 44  1  0  0  0  0
  4  5  1  0  0  0  0
  4  2  1  0  0  0  0
  5  6  1  0  0  0  0
  6  7  1  0  0  0  0
  6 16  2  0  0  0  0
  7 45  1  0  0  0  0
  8  9  1  0  0  0  0
  8  7  1  0  0  0  0
  9 47  1  0  0  0  0
 10 48  1  0  0  0  0
 10  9  2  0  0  0  0
 11 10  1  0  0  0  0
 12 11  1  0  0  0  0
 13 12  1  0  0  0  0
 14 11  2  0  0  0  0
 14 15  1  0  0  0  0
 15  8  2  0  0  0  0
 16 54  1  0  0  0  0
 17 16  1  0  0  0  0
 17 22  1  0  0  0  0
 18 17  2  0  0  0  0
 19 18  1  0  0  0  0
 19 56  1  0  0  0  0
 19 20  1  0  0  0  0
 20 58  1  0  0  0  0
 21 20  1  0  0  0  0
 21 22  1  0  0  0  0
 21 59  1  0  0  0  0
 22 62  1  0  0  0  0
 23  5  2  0  0  0  0
 23 18  1  0  0  0  0
 24 25  1  0  0  0  0
 24 23  1  0  0  0  0
 25 26  1  0  0  0  0
 27 28  1  0  0  0  0
 27 25  2  0  0  0  0
 28 29  1  0  0  0  0
 28 64  1  0  0  0  0
 29 30  2  0  0  0  0
 30 31  1  0  0  0  0
 30 65  1  0  0  0  0
 31 66  1  0  0  0  0
 32 33  1  0  0  0  0
 32 31  2  0  0  0  0
 33 34  1  0  0  0  0
 34 68  1  0  0  0  0
 35 32  1  0  0  0  0
 36 35  2  0  0  0  0
 36 29  1  0  0  0  0
 37 27  1  0  0  0  0
 38 37  2  0  0  0  0
 38 39  1  0  0  0  0
 39 24  2  0  0  0  0
 40 74  1  0  0  0  0
 40 73  1  0  0  0  0
 40 39  1  0  0  0  0
 41 40  1  0  0  0  0
 42 41  1  0  0  0  0
 42 43  1  0  0  0  0
 42 77  1  0  0  0  0
 43 80  1  0  0  0  0
 43 38  1  0  0  0  0
 46  7  1  0  0  0  0
 49 13  1  0  0  0  0
 50 13  1  0  0  0  0
 51 13  1  0  0  0  0
 52 14  1  0  0  0  0
 53 15  1  0  0  0  0
 55 19  1  0  0  0  0
 57 20  1  0  0  0  0
 60 21  1  0  0  0  0
 61 22  1  0  0  0  0
 63 28  1  0  0  0  0
 67 34  1  0  0  0  0
 69 34  1  0  0  0  0
 70 35  1  0  0  0  0
 71 36  1  0  0  0  0
 72 37  1  0  0  0  0
 75 41  1  0  0  0  0
 76 41  1  0  0  0  0
 78 42  1  0  0  0  0
 79 43  1  0  0  0  0
M  END
$$$$
