O=P1(O)OC2=C(C3=CC(C4=CC(C(F)(F)F)=CC(C(F)(F)F)=C4)=CC(C5=CC(C(F)(F)F)=CC(C(F)(F)F)=C5)=C3)C=C6C(C=CC=C6)=C2C7=C(O1)C(C8=CC(C9=CC(C(F)(F)F)=CC(C(F)(F)F)=C9)=CC(C%10=CC(C(F)(F)F)=CC(C(F)(F)F)=C%10)=C8)=CC%11=C7C=CC=C%11
 OpenBabel09032010373D

122132  0  0  0  0  0  0  0  0999 V2000
    0.3038   -1.1147   -0.5687 O   0  0  0  0  0  0  0  0  0  0  0  0
    0.1650   -0.1881    0.6035 P   0  0  0  0  0  0  0  0  0  0  0  0
   -0.2698   -1.0004    1.9269 O   0  0  0  0  0  0  0  0  0  0  0  0
    1.5118    0.5230    1.1095 O   0  0  0  0  0  0  0  0  0  0  0  0
    1.9007    1.6865    0.4956 C   0  0  0  0  0  0  0  0  0  0  0  0
    3.0729    1.6266   -0.2794 C   0  0  0  0  0  0  0  0  0  0  0  0
    3.7864    0.3635   -0.5039 C   0  0  0  0  0  0  0  0  0  0  0  0
    3.4661   -0.4326   -1.6138 C   0  0  0  0  0  0  0  0  0  0  0  0
    4.0737   -1.6785   -1.8366 C   0  0  0  0  0  0  0  0  0  0  0  0
    3.6777   -2.5230   -2.9826 C   0  0  0  0  0  0  0  0  0  0  0  0
    4.6265   -3.2226   -3.7477 C   0  0  0  0  0  0  0  0  0  0  0  0
    4.2517   -4.0317   -4.8371 C   0  0  0  0  0  0  0  0  0  0  0  0
    5.3133   -4.7744   -5.6157 C   0  0  0  0  0  0  0  0  0  0  0  0
    6.0606   -5.5862   -4.8164 F   0  0  0  0  0  0  0  0  0  0  0  0
    6.1939   -3.9334   -6.2232 F   0  0  0  0  0  0  0  0  0  0  0  0
    4.8121   -5.5707   -6.5994 F   0  0  0  0  0  0  0  0  0  0  0  0
    2.8951   -4.1268   -5.1784 C   0  0  0  0  0  0  0  0  0  0  0  0
    1.9216   -3.4446   -4.4348 C   0  0  0  0  0  0  0  0  0  0  0  0
    0.4615   -3.5141   -4.8097 C   0  0  0  0  0  0  0  0  0  0  0  0
   -0.3616   -3.5418   -3.7237 F   0  0  0  0  0  0  0  0  0  0  0  0
    0.1458   -4.6175   -5.5422 F   0  0  0  0  0  0  0  0  0  0  0  0
    0.0686   -2.4431   -5.5514 F   0  0  0  0  0  0  0  0  0  0  0  0
    2.3260   -2.6556   -3.3453 C   0  0  0  0  0  0  0  0  0  0  0  0
    5.0504   -2.0973   -0.9166 C   0  0  0  0  0  0  0  0  0  0  0  0
    5.4160   -1.3189    0.1984 C   0  0  0  0  0  0  0  0  0  0  0  0
    6.4470   -1.7921    1.1381 C   0  0  0  0  0  0  0  0  0  0  0  0
    7.5460   -0.9854    1.4738 C   0  0  0  0  0  0  0  0  0  0  0  0
    8.5527   -1.4367    2.3454 C   0  0  0  0  0  0  0  0  0  0  0  0
    9.7153   -0.5377    2.6951 C   0  0  0  0  0  0  0  0  0  0  0  0
   10.0379    0.3280    1.6947 F   0  0  0  0  0  0  0  0  0  0  0  0
    9.4595    0.2302    3.7891 F   0  0  0  0  0  0  0  0  0  0  0  0
   10.8557   -1.2262    2.9761 F   0  0  0  0  0  0  0  0  0  0  0  0
    8.4451   -2.7192    2.9050 C   0  0  0  0  0  0  0  0  0  0  0  0
    7.3576   -3.5474    2.5937 C   0  0  0  0  0  0  0  0  0  0  0  0
    7.2416   -4.9438    3.1582 C   0  0  0  0  0  0  0  0  0  0  0  0
    8.1387   -5.2082    4.1468 F   0  0  0  0  0  0  0  0  0  0  0  0
    7.4358   -5.8969    2.2049 F   0  0  0  0  0  0  0  0  0  0  0  0
    6.0122   -5.1902    3.6890 F   0  0  0  0  0  0  0  0  0  0  0  0
    6.3709   -3.0719    1.7118 C   0  0  0  0  0  0  0  0  0  0  0  0
    4.7662   -0.0891    0.3899 C   0  0  0  0  0  0  0  0  0  0  0  0
    3.5321    2.8023   -0.8681 C   0  0  0  0  0  0  0  0  0  0  0  0
    2.8312    4.0023   -0.7262 C   0  0  0  0  0  0  0  0  0  0  0  0
    1.6379    4.0483    0.0470 C   0  0  0  0  0  0  0  0  0  0  0  0
    0.9428    5.2849    0.0390 C   0  0  0  0  0  0  0  0  0  0  0  0
    1.4235    6.4199   -0.6208 C   0  0  0  0  0  0  0  0  0  0  0  0
    2.6158    6.3553   -1.3216 C   0  0  0  0  0  0  0  0  0  0  0  0
    3.3099    5.1508   -1.3800 C   0  0  0  0  0  0  0  0  0  0  0  0
    1.1659    2.8699    0.7387 C   0  0  0  0  0  0  0  0  0  0  0  0
    0.0153    2.8641    1.6316 C   0  0  0  0  0  0  0  0  0  0  0  0
   -1.0796    1.9754    1.4224 C   0  0  0  0  0  0  0  0  0  0  0  0
   -0.9562    0.9750    0.4677 O   0  0  0  0  0  0  0  0  0  0  0  0
   -2.3492    2.1403    2.0560 C   0  0  0  0  0  0  0  0  0  0  0  0
   -3.5623    1.3670    1.6792 C   0  0  0  0  0  0  0  0  0  0  0  0
   -4.7983    1.9689    1.3643 C   0  0  0  0  0  0  0  0  0  0  0  0
   -5.8838    1.2235    0.8479 C   0  0  0  0  0  0  0  0  0  0  0  0
   -7.1859    1.8404    0.5113 C   0  0  0  0  0  0  0  0  0  0  0  0
   -7.8476    1.4896   -0.6809 C   0  0  0  0  0  0  0  0  0  0  0  0
   -9.1311    1.9599   -0.9919 C   0  0  0  0  0  0  0  0  0  0  0  0
   -9.8044    1.4988   -2.2621 C   0  0  0  0  0  0  0  0  0  0  0  0
   -9.3779    2.1898   -3.3537 F   0  0  0  0  0  0  0  0  0  0  0  0
   -9.5735    0.1838   -2.5328 F   0  0  0  0  0  0  0  0  0  0  0  0
  -11.1584    1.6421   -2.2317 F   0  0  0  0  0  0  0  0  0  0  0  0
   -9.7502    2.8557   -0.1117 C   0  0  0  0  0  0  0  0  0  0  0  0
   -9.1149    3.2508    1.0776 C   0  0  0  0  0  0  0  0  0  0  0  0
   -9.8040    4.2209    2.0123 C   0  0  0  0  0  0  0  0  0  0  0  0
   -9.7451    5.5030    1.5586 F   0  0  0  0  0  0  0  0  0  0  0  0
  -11.1273    3.9435    2.1801 F   0  0  0  0  0  0  0  0  0  0  0  0
   -9.2644    4.2399    3.2627 F   0  0  0  0  0  0  0  0  0  0  0  0
   -7.8356    2.7382    1.3746 C   0  0  0  0  0  0  0  0  0  0  0  0
   -5.6749   -0.1430    0.5742 C   0  0  0  0  0  0  0  0  0  0  0  0
   -4.4534   -0.7537    0.8381 C   0  0  0  0  0  0  0  0  0  0  0  0
   -4.0497   -2.0255    0.2222 C   0  0  0  0  0  0  0  0  0  0  0  0
   -2.7837   -2.0514   -0.3851 C   0  0  0  0  0  0  0  0  0  0  0  0
   -2.2079   -3.1909   -0.9325 C   0  0  0  0  0  0  0  0  0  0  0  0
   -0.7618   -3.0821   -1.3874 C   0  0  0  0  0  0  0  0  0  0  0  0
   -0.3884   -4.1557   -2.1471 F   0  0  0  0  0  0  0  0  0  0  0  0
    0.1170   -3.0403   -0.3507 F   0  0  0  0  0  0  0  0  0  0  0  0
   -0.5150   -1.9881   -2.1562 F   0  0  0  0  0  0  0  0  0  0  0  0
   -3.0040   -4.3434   -0.9965 C   0  0  0  0  0  0  0  0  0  0  0  0
   -4.3340   -4.3342   -0.5026 C   0  0  0  0  0  0  0  0  0  0  0  0
   -5.2601   -5.5297   -0.6521 C   0  0  0  0  0  0  0  0  0  0  0  0
   -4.6800   -6.5891   -1.2811 F   0  0  0  0  0  0  0  0  0  0  0  0
   -6.3793   -5.2307   -1.3685 F   0  0  0  0  0  0  0  0  0  0  0  0
   -5.6951   -5.9985    0.5494 F   0  0  0  0  0  0  0  0  0  0  0  0
   -4.8298   -3.1760    0.1370 C   0  0  0  0  0  0  0  0  0  0  0  0
   -3.4812   -0.0129    1.5262 C   0  0  0  0  0  0  0  0  0  0  0  0
   -2.4491    3.1161    3.0508 C   0  0  0  0  0  0  0  0  0  0  0  0
   -1.3588    3.9101    3.4159 C   0  0  0  0  0  0  0  0  0  0  0  0
   -0.1248    3.7919    2.7242 C   0  0  0  0  0  0  0  0  0  0  0  0
    0.9398    4.5998    3.2015 C   0  0  0  0  0  0  0  0  0  0  0  0
    0.7868    5.5028    4.2571 C   0  0  0  0  0  0  0  0  0  0  0  0
   -0.4403    5.6221    4.8877 C   0  0  0  0  0  0  0  0  0  0  0  0
   -1.5042    4.8269    4.4715 C   0  0  0  0  0  0  0  0  0  0  0  0
    0.0856   -1.9079    1.8872 H   0  0  0  0  0  0  0  0  0  0  0  0
    2.7085   -0.0720   -2.3099 H   0  0  0  0  0  0  0  0  0  0  0  0
    5.6869   -3.1352   -3.5066 H   0  0  0  0  0  0  0  0  0  0  0  0
    2.5920   -4.7403   -6.0288 H   0  0  0  0  0  0  0  0  0  0  0  0
    1.5560   -2.1412   -2.7655 H   0  0  0  0  0  0  0  0  0  0  0  0
    5.5367   -3.0610   -1.0635 H   0  0  0  0  0  0  0  0  0  0  0  0
    7.6353    0.0090    1.0337 H   0  0  0  0  0  0  0  0  0  0  0  0
    9.2205   -3.0760    3.5857 H   0  0  0  0  0  0  0  0  0  0  0  0
    5.5229   -3.7168    1.4772 H   0  0  0  0  0  0  0  0  0  0  0  0
    5.0066    0.5198    1.2607 H   0  0  0  0  0  0  0  0  0  0  0  0
    4.4338    2.7712   -1.4788 H   0  0  0  0  0  0  0  0  0  0  0  0
   -0.0143    5.3833    0.5476 H   0  0  0  0  0  0  0  0  0  0  0  0
    0.8572    7.3472   -0.5865 H   0  0  0  0  0  0  0  0  0  0  0  0
    2.9969    7.2313   -1.8389 H   0  0  0  0  0  0  0  0  0  0  0  0
    4.2311    5.1139   -1.9590 H   0  0  0  0  0  0  0  0  0  0  0  0
   -4.9036    3.0475    1.4722 H   0  0  0  0  0  0  0  0  0  0  0  0
   -7.3614    0.8161   -1.3892 H   0  0  0  0  0  0  0  0  0  0  0  0
  -10.7435    3.2433   -0.3452 H   0  0  0  0  0  0  0  0  0  0  0  0
   -7.3568    3.0286    2.3107 H   0  0  0  0  0  0  0  0  0  0  0  0
   -6.4548   -0.7248    0.0874 H   0  0  0  0  0  0  0  0  0  0  0  0
   -2.2150   -1.1269   -0.4443 H   0  0  0  0  0  0  0  0  0  0  0  0
   -2.6012   -5.2493   -1.4510 H   0  0  0  0  0  0  0  0  0  0  0  0
   -5.8353   -3.1850    0.5552 H   0  0  0  0  0  0  0  0  0  0  0  0
   -2.5707   -0.5160    1.8371 H   0  0  0  0  0  0  0  0  0  0  0  0
   -3.3960    3.2400    3.5761 H   0  0  0  0  0  0  0  0  0  0  0  0
    1.9307    4.5267    2.7559 H   0  0  0  0  0  0  0  0  0  0  0  0
    1.6319    6.1040    4.5822 H   0  0  0  0  0  0  0  0  0  0  0  0
   -0.5691    6.3212    5.7094 H   0  0  0  0  0  0  0  0  0  0  0  0
   -2.4556    4.9233    4.9920 H   0  0  0  0  0  0  0  0  0  0  0  0
  1  2  2  0  0  0  0
  2  4  1  0  0  0  0
  2  3  1  0  0  0  0
  5 48  1  0  0  0  0
  5  4  1  0  0  0  0
  6  5  2  0  0  0  0
  7  6  1  0  0  0  0
  7 40  2  0  0  0  0
  8  7  1  0  0  0  0
  9  8  2  0  0  0  0
  9 24  1  0  0  0  0
 10  9  1  0  0  0  0
 11 96  1  0  0  0  0
 11 10  2  0  0  0  0
 12 11  1  0  0  0  0
 13 12  1  0  0  0  0
 13 14  1  0  0  0  0
 15 13  1  0  0  0  0
 16 13  1  0  0  0  0
 17 12  2  0  0  0  0
 17 18  1  0  0  0  0
 18 23  2  0  0  0  0
 19 18  1  0  0  0  0
 19 20  1  0  0  0  0
 21 19  1  0  0  0  0
 22 19  1  0  0  0  0
 23 10  1  0  0  0  0
 23 98  1  0  0  0  0
 24 25  2  0  0  0  0
 25 40  1  0  0  0  0
 25 26  1  0  0  0  0
 26 27  2  0  0  0  0
 26 39  1  0  0  0  0
 27 28  1  0  0  0  0
 28 29  1  0  0  0  0
 28 33  2  0  0  0  0
 29 32  1  0  0  0  0
 29 31  1  0  0  0  0
 30 29  1  0  0  0  0
 33101  1  0  0  0  0
 34 33  1  0  0  0  0
 34 35  1  0  0  0  0
 35 38  1  0  0  0  0
 35 36  1  0  0  0  0
 37 35  1  0  0  0  0
 39 34  2  0  0  0  0
 40103  1  0  0  0  0
 41 42  2  0  0  0  0
 41  6  1  0  0  0  0
 42 43  1  0  0  0  0
 43 48  2  0  0  0  0
 44 43  1  0  0  0  0
 44105  1  0  0  0  0
 45106  1  0  0  0  0
 45 44  2  0  0  0  0
 46 45  1  0  0  0  0
 47 46  2  0  0  0  0
 47 42  1  0  0  0  0
 48 49  1  0  0  0  0
 49 89  1  0  0  0  0
 50 49  2  0  0  0  0
 50 52  1  0  0  0  0
 51  2  1  0  0  0  0
 51 50  1  0  0  0  0
 52 87  2  0  0  0  0
 53 52  1  0  0  0  0
 54109  1  0  0  0  0
 54 53  1  0  0  0  0
 55 54  2  0  0  0  0
 56 55  1  0  0  0  0
 56 69  2  0  0  0  0
 57 56  1  0  0  0  0
 58 57  2  0  0  0  0
 58 63  1  0  0  0  0
 59 62  1  0  0  0  0
 59 58  1  0  0  0  0
 60 59  1  0  0  0  0
 61 59  1  0  0  0  0
 63 64  2  0  0  0  0
 64 69  1  0  0  0  0
 64 65  1  0  0  0  0
 65 67  1  0  0  0  0
 65 68  1  0  0  0  0
 66 65  1  0  0  0  0
 69112  1  0  0  0  0
 70 71  2  0  0  0  0
 70 55  1  0  0  0  0
 71 86  1  0  0  0  0
 72 71  1  0  0  0  0
 73 72  2  0  0  0  0
 74 73  1  0  0  0  0
 75 74  1  0  0  0  0
 75 77  1  0  0  0  0
 76 75  1  0  0  0  0
 78 75  1  0  0  0  0
 79 74  2  0  0  0  0
 79 80  1  0  0  0  0
 80 85  2  0  0  0  0
 81 80  1  0  0  0  0
 81 84  1  0  0  0  0
 82 81  1  0  0  0  0
 83 81  1  0  0  0  0
 85 72  1  0  0  0  0
 85116  1  0  0  0  0
 86 53  2  0  0  0  0
 86117  1  0  0  0  0
 87 88  1  0  0  0  0
 87118  1  0  0  0  0
 88 93  2  0  0  0  0
 89 90  2  0  0  0  0
 89 88  1  0  0  0  0
 90 91  1  0  0  0  0
 91120  1  0  0  0  0
 91 92  2  0  0  0  0
 92121  1  0  0  0  0
 93 92  1  0  0  0  0
 93122  1  0  0  0  0
 94  3  1  0  0  0  0
 95  8  1  0  0  0  0
 97 17  1  0  0  0  0
 99 24  1  0  0  0  0
100 27  1  0  0  0  0
102 39  1  0  0  0  0
104 41  1  0  0  0  0
107 46  1  0  0  0  0
108 47  1  0  0  0  0
110 57  1  0  0  0  0
111 63  1  0  0  0  0
113 70  1  0  0  0  0
114 73  1  0  0  0  0
115 79  1  0  0  0  0
119 90  1  0  0  0  0
M  END
$$$$
