O=P1(O)OC2=C([Si](C3=CC=CC=C3)(C4=CC=CC=C4)C5=CC=CC=C5)C=C6C(CCCC6)=C2C7=C(O1)C([Si](C8=CC=CC=C8)(C9=CC=CC=C9)C%10=CC=CC=C%10)=CC%11=C7CCCC%11
 OpenBabel09032010383D

112122  0  0  0  0  0  0  0  0999 V2000
    0.9402    2.6621   -0.6190 O   0  0  0  0  0  0  0  0  0  0  0  0
    0.0919    1.4404   -0.8092 P   0  0  0  0  0  0  0  0  0  0  0  0
   -0.8150    1.5090   -2.1331 O   0  0  0  0  0  0  0  0  0  0  0  0
   -0.9411    1.1642    0.3985 O   0  0  0  0  0  0  0  0  0  0  0  0
   -1.4800   -0.0779    0.6256 C   0  0  0  0  0  0  0  0  0  0  0  0
   -2.8932   -0.1768    0.6582 C   0  0  0  0  0  0  0  0  0  0  0  0
   -4.0883    1.2652    0.4839 Si  0  0  0  0  0  0  0  0  0  0  0  0
   -3.4351    2.7043   -0.5064 C   0  0  0  0  0  0  0  0  0  0  0  0
   -3.7913    2.9136   -1.8528 C   0  0  0  0  0  0  0  0  0  0  0  0
   -3.2856    3.9966   -2.5812 C   0  0  0  0  0  0  0  0  0  0  0  0
   -2.4114    4.8972   -1.9825 C   0  0  0  0  0  0  0  0  0  0  0  0
   -2.0520    4.7250   -0.6512 C   0  0  0  0  0  0  0  0  0  0  0  0
   -2.5631    3.6482    0.0788 C   0  0  0  0  0  0  0  0  0  0  0  0
   -4.5148    1.8985    2.2051 C   0  0  0  0  0  0  0  0  0  0  0  0
   -4.2287    1.1555    3.3664 C   0  0  0  0  0  0  0  0  0  0  0  0
   -4.5532    1.6441    4.6361 C   0  0  0  0  0  0  0  0  0  0  0  0
   -5.1696    2.8839    4.7744 C   0  0  0  0  0  0  0  0  0  0  0  0
   -5.4620    3.6392    3.6438 C   0  0  0  0  0  0  0  0  0  0  0  0
   -5.1388    3.1535    2.3739 C   0  0  0  0  0  0  0  0  0  0  0  0
   -5.6661    0.6196   -0.3229 C   0  0  0  0  0  0  0  0  0  0  0  0
   -5.6024   -0.1873   -1.4800 C   0  0  0  0  0  0  0  0  0  0  0  0
   -6.7617   -0.6826   -2.0857 C   0  0  0  0  0  0  0  0  0  0  0  0
   -8.0112   -0.3846   -1.5512 C   0  0  0  0  0  0  0  0  0  0  0  0
   -8.1014    0.4071   -0.4108 C   0  0  0  0  0  0  0  0  0  0  0  0
   -6.9434    0.9030    0.1976 C   0  0  0  0  0  0  0  0  0  0  0  0
   -3.4334   -1.4517    0.9164 C   0  0  0  0  0  0  0  0  0  0  0  0
   -2.6168   -2.5662    1.1009 C   0  0  0  0  0  0  0  0  0  0  0  0
   -1.2131   -2.4287    1.1040 C   0  0  0  0  0  0  0  0  0  0  0  0
   -0.4319   -3.7264    1.2374 C   0  0  0  0  0  0  0  0  0  0  0  0
   -1.0245   -4.8096    0.3334 C   0  0  0  0  0  0  0  0  0  0  0  0
   -2.5344   -5.0041    0.5052 C   0  0  0  0  0  0  0  0  0  0  0  0
   -3.2146   -3.9278    1.3498 C   0  0  0  0  0  0  0  0  0  0  0  0
   -0.5963   -1.1590    0.9425 C   0  0  0  0  0  0  0  0  0  0  0  0
    0.8343   -0.9838    1.0810 C   0  0  0  0  0  0  0  0  0  0  0  0
    1.5982   -0.4286    0.0223 C   0  0  0  0  0  0  0  0  0  0  0  0
    0.8979    0.0643   -1.0433 O   0  0  0  0  0  0  0  0  0  0  0  0
    3.0076   -0.3779   -0.0208 C   0  0  0  0  0  0  0  0  0  0  0  0
    4.0255    0.1908   -1.4955 Si  0  0  0  0  0  0  0  0  0  0  0  0
    4.7878   -1.3165   -2.3197 C   0  0  0  0  0  0  0  0  0  0  0  0
    5.5076   -1.1818   -3.5260 C   0  0  0  0  0  0  0  0  0  0  0  0
    6.0672   -2.2914   -4.1646 C   0  0  0  0  0  0  0  0  0  0  0  0
    5.9145   -3.5611   -3.6177 C   0  0  0  0  0  0  0  0  0  0  0  0
    5.1987   -3.7230   -2.4358 C   0  0  0  0  0  0  0  0  0  0  0  0
    4.6380   -2.6145   -1.7949 C   0  0  0  0  0  0  0  0  0  0  0  0
    5.3582    1.3129   -0.8182 C   0  0  0  0  0  0  0  0  0  0  0  0
    6.7271    1.0975   -1.0633 C   0  0  0  0  0  0  0  0  0  0  0  0
    7.7015    1.9478   -0.5305 C   0  0  0  0  0  0  0  0  0  0  0  0
    7.3312    3.0289    0.2628 C   0  0  0  0  0  0  0  0  0  0  0  0
    5.9859    3.2601    0.5288 C   0  0  0  0  0  0  0  0  0  0  0  0
    5.0105    2.4112   -0.0017 C   0  0  0  0  0  0  0  0  0  0  0  0
    3.0369    1.0538   -2.8235 C   0  0  0  0  0  0  0  0  0  0  0  0
    2.1730    0.3164   -3.6623 C   0  0  0  0  0  0  0  0  0  0  0  0
    1.3476    0.9491   -4.5942 C   0  0  0  0  0  0  0  0  0  0  0  0
    1.3871    2.3307   -4.7345 C   0  0  0  0  0  0  0  0  0  0  0  0
    2.2705    3.0776   -3.9638 C   0  0  0  0  0  0  0  0  0  0  0  0
    3.0874    2.4464   -3.0201 C   0  0  0  0  0  0  0  0  0  0  0  0
    3.6826   -0.8134    1.1332 C   0  0  0  0  0  0  0  0  0  0  0  0
    2.9868   -1.2875    2.2481 C   0  0  0  0  0  0  0  0  0  0  0  0
    1.5764   -1.3699    2.2321 C   0  0  0  0  0  0  0  0  0  0  0  0
    0.9272   -1.6967    3.5650 C   0  0  0  0  0  0  0  0  0  0  0  0
    1.6089   -2.8557    4.2995 C   0  0  0  0  0  0  0  0  0  0  0  0
    3.1259   -2.9337    4.1067 C   0  0  0  0  0  0  0  0  0  0  0  0
    3.7280   -1.6678    3.5070 C   0  0  0  0  0  0  0  0  0  0  0  0
   -0.3221    1.9509   -2.8506 H   0  0  0  0  0  0  0  0  0  0  0  0
   -4.4682    2.2364   -2.3694 H   0  0  0  0  0  0  0  0  0  0  0  0
   -3.5762    4.1302   -3.6198 H   0  0  0  0  0  0  0  0  0  0  0  0
   -2.0108    5.7321   -2.5497 H   0  0  0  0  0  0  0  0  0  0  0  0
   -1.3664    5.4221   -0.1761 H   0  0  0  0  0  0  0  0  0  0  0  0
   -2.2456    3.5457    1.1175 H   0  0  0  0  0  0  0  0  0  0  0  0
   -3.7438    0.1826    3.3106 H   0  0  0  0  0  0  0  0  0  0  0  0
   -4.3209    1.0526    5.5181 H   0  0  0  0  0  0  0  0  0  0  0  0
   -5.4202    3.2613    5.7620 H   0  0  0  0  0  0  0  0  0  0  0  0
   -5.9411    4.6095    3.7462 H   0  0  0  0  0  0  0  0  0  0  0  0
   -5.3838    3.7754    1.5122 H   0  0  0  0  0  0  0  0  0  0  0  0
   -4.6404   -0.4445   -1.9255 H   0  0  0  0  0  0  0  0  0  0  0  0
   -6.6877   -1.3029   -2.9755 H   0  0  0  0  0  0  0  0  0  0  0  0
   -8.9139   -0.7689   -2.0201 H   0  0  0  0  0  0  0  0  0  0  0  0
   -9.0756    0.6408    0.0119 H   0  0  0  0  0  0  0  0  0  0  0  0
   -7.0669    1.5112    1.0917 H   0  0  0  0  0  0  0  0  0  0  0  0
   -4.5138   -1.5956    0.9748 H   0  0  0  0  0  0  0  0  0  0  0  0
    0.6184   -3.6053    0.9572 H   0  0  0  0  0  0  0  0  0  0  0  0
   -0.4648   -4.0563    2.2815 H   0  0  0  0  0  0  0  0  0  0  0  0
   -0.8274   -4.5417   -0.7136 H   0  0  0  0  0  0  0  0  0  0  0  0
   -0.5064   -5.7605    0.5050 H   0  0  0  0  0  0  0  0  0  0  0  0
   -2.9930   -5.0247   -0.4922 H   0  0  0  0  0  0  0  0  0  0  0  0
   -2.7376   -5.9871    0.9470 H   0  0  0  0  0  0  0  0  0  0  0  0
   -4.2903   -3.9334    1.1383 H   0  0  0  0  0  0  0  0  0  0  0  0
   -3.1017   -4.1609    2.4162 H   0  0  0  0  0  0  0  0  0  0  0  0
    5.6380   -0.2036   -3.9903 H   0  0  0  0  0  0  0  0  0  0  0  0
    6.6177   -2.1613   -5.0928 H   0  0  0  0  0  0  0  0  0  0  0  0
    6.3468   -4.4244   -4.1152 H   0  0  0  0  0  0  0  0  0  0  0  0
    5.0684   -4.7149   -2.0105 H   0  0  0  0  0  0  0  0  0  0  0  0
    4.0715   -2.7950   -0.8827 H   0  0  0  0  0  0  0  0  0  0  0  0
    7.0688    0.2592   -1.6675 H   0  0  0  0  0  0  0  0  0  0  0  0
    8.7522    1.7595   -0.7360 H   0  0  0  0  0  0  0  0  0  0  0  0
    8.0893    3.6885    0.6755 H   0  0  0  0  0  0  0  0  0  0  0  0
    5.6902    4.1009    1.1511 H   0  0  0  0  0  0  0  0  0  0  0  0
    3.9656    2.6240    0.2328 H   0  0  0  0  0  0  0  0  0  0  0  0
    2.0948   -0.7677   -3.5647 H   0  0  0  0  0  0  0  0  0  0  0  0
    0.6463    0.3637   -5.1814 H   0  0  0  0  0  0  0  0  0  0  0  0
    0.7124    2.8228   -5.4263 H   0  0  0  0  0  0  0  0  0  0  0  0
    2.3151    4.1587   -4.0762 H   0  0  0  0  0  0  0  0  0  0  0  0
    3.7407    3.0784   -2.4207 H   0  0  0  0  0  0  0  0  0  0  0  0
    4.7724   -0.7747    1.1820 H   0  0  0  0  0  0  0  0  0  0  0  0
   -0.1408   -1.9107    3.4849 H   0  0  0  0  0  0  0  0  0  0  0  0
    0.9963   -0.7916    4.1843 H   0  0  0  0  0  0  0  0  0  0  0  0
    1.1740   -3.8071    3.9699 H   0  0  0  0  0  0  0  0  0  0  0  0
    1.3753   -2.7791    5.3685 H   0  0  0  0  0  0  0  0  0  0  0  0
    3.6119   -3.1657    5.0615 H   0  0  0  0  0  0  0  0  0  0  0  0
    3.3456   -3.7791    3.4404 H   0  0  0  0  0  0  0  0  0  0  0  0
    3.6712   -0.8366    4.2200 H   0  0  0  0  0  0  0  0  0  0  0  0
    4.7886   -1.8453    3.2936 H   0  0  0  0  0  0  0  0  0  0  0  0
  2  1  2  0  0  0  0
  2  4  1  0  0  0  0
  3  2  1  0  0  0  0
  4  5  1  0  0  0  0
  5  6  2  0  0  0  0
  5 33  1  0  0  0  0
  6 26  1  0  0  0  0
  7  6  1  0  0  0  0
  7 14  1  0  0  0  0
  8 13  1  0  0  0  0
  8  7  1  0  0  0  0
  9  8  2  0  0  0  0
 10 11  2  0  0  0  0
 10  9  1  0  0  0  0
 11 12  1  0  0  0  0
 12 68  1  0  0  0  0
 12 13  2  0  0  0  0
 13 69  1  0  0  0  0
 14 19  2  0  0  0  0
 14 15  1  0  0  0  0
 15 16  2  0  0  0  0
 16 17  1  0  0  0  0
 16 71  1  0  0  0  0
 17 72  1  0  0  0  0
 18 73  1  0  0  0  0
 18 17  2  0  0  0  0
 19 18  1  0  0  0  0
 20 25  1  0  0  0  0
 20  7  1  0  0  0  0
 21 20  2  0  0  0  0
 22 23  2  0  0  0  0
 22 21  1  0  0  0  0
 23 24  1  0  0  0  0
 24 78  1  0  0  0  0
 24 25  2  0  0  0  0
 25 79  1  0  0  0  0
 26 80  1  0  0  0  0
 26 27  2  0  0  0  0
 27 28  1  0  0  0  0
 27 32  1  0  0  0  0
 28 29  1  0  0  0  0
 29 82  1  0  0  0  0
 30 84  1  0  0  0  0
 30 31  1  0  0  0  0
 30 29  1  0  0  0  0
 31 86  1  0  0  0  0
 31 32  1  0  0  0  0
 32 88  1  0  0  0  0
 33 34  1  0  0  0  0
 33 28  2  0  0  0  0
 34 59  2  0  0  0  0
 35 34  1  0  0  0  0
 36  2  1  0  0  0  0
 36 35  1  0  0  0  0
 37 35  2  0  0  0  0
 37 57  1  0  0  0  0
 38 45  1  0  0  0  0
 38 37  1  0  0  0  0
 39 44  1  0  0  0  0
 39 38  1  0  0  0  0
 40 39  2  0  0  0  0
 41 42  2  0  0  0  0
 41 40  1  0  0  0  0
 42 43  1  0  0  0  0
 43 92  1  0  0  0  0
 43 44  2  0  0  0  0
 44 93  1  0  0  0  0
 45 50  1  0  0  0  0
 46 45  2  0  0  0  0
 46 47  1  0  0  0  0
 47 48  2  0  0  0  0
 48 49  1  0  0  0  0
 48 96  1  0  0  0  0
 49 97  1  0  0  0  0
 50 98  1  0  0  0  0
 50 49  2  0  0  0  0
 51 38  1  0  0  0  0
 52 99  1  0  0  0  0
 52 51  2  0  0  0  0
 53 52  1  0  0  0  0
 54 53  2  0  0  0  0
 54 55  1  0  0  0  0
 55 56  2  0  0  0  0
 56 51  1  0  0  0  0
 56103  1  0  0  0  0
 57104  1  0  0  0  0
 57 58  2  0  0  0  0
 58 63  1  0  0  0  0
 59 58  1  0  0  0  0
 59 60  1  0  0  0  0
 60106  1  0  0  0  0
 60 61  1  0  0  0  0
 61108  1  0  0  0  0
 62 61  1  0  0  0  0
 62109  1  0  0  0  0
 63 62  1  0  0  0  0
 63111  1  0  0  0  0
 64  3  1  0  0  0  0
 65  9  1  0  0  0  0
 66 10  1  0  0  0  0
 67 11  1  0  0  0  0
 70 15  1  0  0  0  0
 74 19  1  0  0  0  0
 75 21  1  0  0  0  0
 76 22  1  0  0  0  0
 77 23  1  0  0  0  0
 81 29  1  0  0  0  0
 83 30  1  0  0  0  0
 85 31  1  0  0  0  0
 87 32  1  0  0  0  0
 89 40  1  0  0  0  0
 90 41  1  0  0  0  0
 91 42  1  0  0  0  0
 94 46  1  0  0  0  0
 95 47  1  0  0  0  0
100 53  1  0  0  0  0
101 54  1  0  0  0  0
102 55  1  0  0  0  0
105 60  1  0  0  0  0
107 61  1  0  0  0  0
110 62  1  0  0  0  0
112 63  1  0  0  0  0
M  END
$$$$
