O=P1(O)OC2=C(C3=CC=C(C4=CC=C(C=CC=C5)C5=C4)C=C3)C=C6C(C=CC=C6)=C2C7=C(O1)C(C8=CC=C(C9=CC(C=CC=C%10)=C%10C=C9)C=C8)=CC%11=C7C=CC=C%11
 OpenBabel09032010373D

 90100  0  0  0  0  0  0  0  0999 V2000
   -0.5957   -0.3748    1.3032 O   0  0  0  0  0  0  0  0  0  0  0  0
   -0.0556    0.1113   -0.0050 P   0  0  0  0  0  0  0  0  0  0  0  0
    0.6746   -1.0743   -0.8122 O   0  0  0  0  0  0  0  0  0  0  0  0
   -1.1301    0.6823   -1.0601 O   0  0  0  0  0  0  0  0  0  0  0  0
   -1.5926    1.9612   -0.8376 C   0  0  0  0  0  0  0  0  0  0  0  0
   -2.9243    2.0932   -0.4104 C   0  0  0  0  0  0  0  0  0  0  0  0
   -3.8003    0.9308   -0.2123 C   0  0  0  0  0  0  0  0  0  0  0  0
   -4.2876    0.2031   -1.3063 C   0  0  0  0  0  0  0  0  0  0  0  0
   -5.1067   -0.9148   -1.1160 C   0  0  0  0  0  0  0  0  0  0  0  0
   -5.4630   -1.3382    0.1730 C   0  0  0  0  0  0  0  0  0  0  0  0
   -6.3016   -2.5289    0.3741 C   0  0  0  0  0  0  0  0  0  0  0  0
   -5.9170   -3.7729   -0.1450 C   0  0  0  0  0  0  0  0  0  0  0  0
   -6.7053   -4.9100    0.0516 C   0  0  0  0  0  0  0  0  0  0  0  0
   -7.9048   -4.8328    0.7726 C   0  0  0  0  0  0  0  0  0  0  0  0
   -8.7088   -5.9653    0.9794 C   0  0  0  0  0  0  0  0  0  0  0  0
   -9.9008   -5.8711    1.6991 C   0  0  0  0  0  0  0  0  0  0  0  0
  -10.3034   -4.6451    2.2198 C   0  0  0  0  0  0  0  0  0  0  0  0
   -9.5146   -3.5104    2.0229 C   0  0  0  0  0  0  0  0  0  0  0  0
   -8.3117   -3.5882    1.3023 C   0  0  0  0  0  0  0  0  0  0  0  0
   -7.5043   -2.4551    1.0967 C   0  0  0  0  0  0  0  0  0  0  0  0
   -4.9806   -0.6024    1.2654 C   0  0  0  0  0  0  0  0  0  0  0  0
   -4.1606    0.5152    1.0761 C   0  0  0  0  0  0  0  0  0  0  0  0
   -3.4078    3.3800   -0.1713 C   0  0  0  0  0  0  0  0  0  0  0  0
   -2.5915    4.5054   -0.3217 C   0  0  0  0  0  0  0  0  0  0  0  0
   -1.2469    4.3603   -0.7584 C   0  0  0  0  0  0  0  0  0  0  0  0
   -0.4669    5.5441   -0.7928 C   0  0  0  0  0  0  0  0  0  0  0  0
   -0.9937    6.8003   -0.4806 C   0  0  0  0  0  0  0  0  0  0  0  0
   -2.3216    6.9166   -0.1031 C   0  0  0  0  0  0  0  0  0  0  0  0
   -3.1127    5.7745   -0.0183 C   0  0  0  0  0  0  0  0  0  0  0  0
   -0.7279    3.0553   -1.0857 C   0  0  0  0  0  0  0  0  0  0  0  0
    0.5860    2.8205   -1.6496 C   0  0  0  0  0  0  0  0  0  0  0  0
    1.4820    1.9152   -1.0244 C   0  0  0  0  0  0  0  0  0  0  0  0
    1.0848    1.2431    0.1119 O   0  0  0  0  0  0  0  0  0  0  0  0
    2.8032    1.6951   -1.4543 C   0  0  0  0  0  0  0  0  0  0  0  0
    3.7079    0.7555   -0.7727 C   0  0  0  0  0  0  0  0  0  0  0  0
    4.1618    0.9984    0.5307 C   0  0  0  0  0  0  0  0  0  0  0  0
    5.0162    0.0956    1.1742 C   0  0  0  0  0  0  0  0  0  0  0  0
    5.4422   -1.0782    0.5353 C   0  0  0  0  0  0  0  0  0  0  0  0
    6.3327   -2.0318    1.2141 C   0  0  0  0  0  0  0  0  0  0  0  0
    7.5796   -1.6260    1.7206 C   0  0  0  0  0  0  0  0  0  0  0  0
    8.4425   -2.5279    2.3705 C   0  0  0  0  0  0  0  0  0  0  0  0
    9.6910   -2.1210    2.8711 C   0  0  0  0  0  0  0  0  0  0  0  0
   10.5333   -3.0291    3.5144 C   0  0  0  0  0  0  0  0  0  0  0  0
   10.1400   -4.3553    3.6652 C   0  0  0  0  0  0  0  0  0  0  0  0
    8.9040   -4.7764    3.1725 C   0  0  0  0  0  0  0  0  0  0  0  0
    8.0457   -3.8748    2.5226 C   0  0  0  0  0  0  0  0  0  0  0  0
    6.8021   -4.2825    2.0202 C   0  0  0  0  0  0  0  0  0  0  0  0
    5.9601   -3.3734    1.3739 C   0  0  0  0  0  0  0  0  0  0  0  0
    4.9882   -1.3184   -0.7699 C   0  0  0  0  0  0  0  0  0  0  0  0
    4.1361   -0.4153   -1.4145 C   0  0  0  0  0  0  0  0  0  0  0  0
    3.2458    2.3905   -2.5809 C   0  0  0  0  0  0  0  0  0  0  0  0
    2.4008    3.2510   -3.2876 C   0  0  0  0  0  0  0  0  0  0  0  0
    1.0647    3.4589   -2.8510 C   0  0  0  0  0  0  0  0  0  0  0  0
    0.2520    4.2650   -3.6890 C   0  0  0  0  0  0  0  0  0  0  0  0
    0.7406    4.8829   -4.8433 C   0  0  0  0  0  0  0  0  0  0  0  0
    2.0624    4.7016   -5.2152 C   0  0  0  0  0  0  0  0  0  0  0  0
    2.8845    3.8846   -4.4450 C   0  0  0  0  0  0  0  0  0  0  0  0
    1.1592   -1.6479   -0.1909 H   0  0  0  0  0  0  0  0  0  0  0  0
   -4.0224    0.4992   -2.3194 H   0  0  0  0  0  0  0  0  0  0  0  0
   -5.4682   -1.4558   -1.9883 H   0  0  0  0  0  0  0  0  0  0  0  0
   -4.9847   -3.8688   -0.6984 H   0  0  0  0  0  0  0  0  0  0  0  0
   -6.3694   -5.8584   -0.3615 H   0  0  0  0  0  0  0  0  0  0  0  0
   -8.4109   -6.9318    0.5794 H   0  0  0  0  0  0  0  0  0  0  0  0
  -10.5139   -6.7552    1.8517 H   0  0  0  0  0  0  0  0  0  0  0  0
  -11.2318   -4.5696    2.7797 H   0  0  0  0  0  0  0  0  0  0  0  0
   -9.8496   -2.5620    2.4371 H   0  0  0  0  0  0  0  0  0  0  0  0
   -7.8214   -1.4944    1.4992 H   0  0  0  0  0  0  0  0  0  0  0  0
   -5.2185   -0.9110    2.2814 H   0  0  0  0  0  0  0  0  0  0  0  0
   -3.7818    1.0445    1.9483 H   0  0  0  0  0  0  0  0  0  0  0  0
   -4.4397    3.4992    0.1582 H   0  0  0  0  0  0  0  0  0  0  0  0
    0.5884    5.5028   -1.0569 H   0  0  0  0  0  0  0  0  0  0  0  0
   -0.3585    7.6809   -0.5286 H   0  0  0  0  0  0  0  0  0  0  0  0
   -2.7388    7.8894    0.1423 H   0  0  0  0  0  0  0  0  0  0  0  0
   -4.1468    5.8835    0.3038 H   0  0  0  0  0  0  0  0  0  0  0  0
    3.8475    1.8967    1.0593 H   0  0  0  0  0  0  0  0  0  0  0  0
    5.3385    0.3123    2.1912 H   0  0  0  0  0  0  0  0  0  0  0  0
    7.8895   -0.5896    1.5957 H   0  0  0  0  0  0  0  0  0  0  0  0
   10.0167   -1.0888    2.7629 H   0  0  0  0  0  0  0  0  0  0  0  0
   11.4957   -2.6993    3.8968 H   0  0  0  0  0  0  0  0  0  0  0  0
   10.7945   -5.0637    4.1658 H   0  0  0  0  0  0  0  0  0  0  0  0
    8.6144   -5.8172    3.2992 H   0  0  0  0  0  0  0  0  0  0  0  0
    6.4741   -5.3137    2.1288 H   0  0  0  0  0  0  0  0  0  0  0  0
    4.9983   -3.7227    1.0041 H   0  0  0  0  0  0  0  0  0  0  0  0
    5.3047   -2.2125   -1.3035 H   0  0  0  0  0  0  0  0  0  0  0  0
    3.7987   -0.6386   -2.4252 H   0  0  0  0  0  0  0  0  0  0  0  0
    4.2688    2.2373   -2.9238 H   0  0  0  0  0  0  0  0  0  0  0  0
   -0.8011    4.4162   -3.4585 H   0  0  0  0  0  0  0  0  0  0  0  0
    0.0801    5.4979   -5.4488 H   0  0  0  0  0  0  0  0  0  0  0  0
    2.4498    5.1772   -6.1119 H   0  0  0  0  0  0  0  0  0  0  0  0
    3.9127    3.7329   -4.7685 H   0  0  0  0  0  0  0  0  0  0  0  0
  2 33  1  0  0  0  0
  2  1  2  0  0  0  0
  3 58  1  0  0  0  0
  3  2  1  0  0  0  0
  4  5  1  0  0  0  0
  4  2  1  0  0  0  0
  5  6  1  0  0  0  0
  6  7  1  0  0  0  0
  6 23  2  0  0  0  0
  7 22  2  0  0  0  0
  8  9  2  0  0  0  0
  8  7  1  0  0  0  0
  9 10  1  0  0  0  0
 10 11  1  0  0  0  0
 10 21  2  0  0  0  0
 11 20  2  0  0  0  0
 12 13  2  0  0  0  0
 12 11  1  0  0  0  0
 13 14  1  0  0  0  0
 14 15  2  0  0  0  0
 14 19  1  0  0  0  0
 15 16  1  0  0  0  0
 16 64  1  0  0  0  0
 16 17  2  0  0  0  0
 17 65  1  0  0  0  0
 18 17  1  0  0  0  0
 18 66  1  0  0  0  0
 19 18  2  0  0  0  0
 20 19  1  0  0  0  0
 20 67  1  0  0  0  0
 21 68  1  0  0  0  0
 22 21  1  0  0  0  0
 22 69  1  0  0  0  0
 23 70  1  0  0  0  0
 24 23  1  0  0  0  0
 24 29  2  0  0  0  0
 25 24  1  0  0  0  0
 26 25  2  0  0  0  0
 26 27  1  0  0  0  0
 27 28  2  0  0  0  0
 28 29  1  0  0  0  0
 28 73  1  0  0  0  0
 29 74  1  0  0  0  0
 30  5  2  0  0  0  0
 30 25  1  0  0  0  0
 31 30  1  0  0  0  0
 31 32  2  0  0  0  0
 32 33  1  0  0  0  0
 34 32  1  0  0  0  0
 34 35  1  0  0  0  0
 35 36  1  0  0  0  0
 36 75  1  0  0  0  0
 36 37  2  0  0  0  0
 37 76  1  0  0  0  0
 38 37  1  0  0  0  0
 38 39  1  0  0  0  0
 39 48  2  0  0  0  0
 39 40  1  0  0  0  0
 40 41  2  0  0  0  0
 41 46  1  0  0  0  0
 41 42  1  0  0  0  0
 42 43  2  0  0  0  0
 43 44  1  0  0  0  0
 43 79  1  0  0  0  0
 44 80  1  0  0  0  0
 45 81  1  0  0  0  0
 45 44  2  0  0  0  0
 46 45  1  0  0  0  0
 47 82  1  0  0  0  0
 47 46  2  0  0  0  0
 48 47  1  0  0  0  0
 49 38  2  0  0  0  0
 50 35  2  0  0  0  0
 50 49  1  0  0  0  0
 51 34  2  0  0  0  0
 52 53  1  0  0  0  0
 52 51  1  0  0  0  0
 53 31  1  0  0  0  0
 54 87  1  0  0  0  0
 54 53  2  0  0  0  0
 55 54  1  0  0  0  0
 56 55  2  0  0  0  0
 56 57  1  0  0  0  0
 57 52  2  0  0  0  0
 59  8  1  0  0  0  0
 60  9  1  0  0  0  0
 61 12  1  0  0  0  0
 62 13  1  0  0  0  0
 63 15  1  0  0  0  0
 71 26  1  0  0  0  0
 72 27  1  0  0  0  0
 77 40  1  0  0  0  0
 78 42  1  0  0  0  0
 83 48  1  0  0  0  0
 84 49  1  0  0  0  0
 85 50  1  0  0  0  0
 86 51  1  0  0  0  0
 88 55  1  0  0  0  0
 89 56  1  0  0  0  0
 90 57  1  0  0  0  0
M  END
$$$$
