O=P1(O)OC2=C(C3=CC=C(S(F)(F)(F)(F)F)C=C3)C=C4C(C=CC=C4)=C2C5=C(O1)C(C6=CC=C(S(F)(F)(F)(F)F)C=C6)=CC7=C5C=CC=C7
 OpenBabel09032010373D

 68 66  0  0  0  0  0  0  0  0999 V2000
    0.1424   -1.8003   -2.5251 O   0  0  0  0  0  0  0  0  0  0  0  0
   -0.1643   -1.6528   -1.0677 P   0  0  0  0  0  0  0  0  0  0  0  0
   -0.6537   -3.1340   -0.4706 O   0  0  0  0  0  0  0  0  0  0  0  0
   -1.4474   -0.4699   -0.9173 O   0  0  0  0  0  0  0  0  0  0  0  0
   -1.6387    0.2784    0.2195 C   0  0  0  0  0  0  0  0  0  0  0  0
   -2.8733    0.4438    0.7607 C   0  0  0  0  0  0  0  0  0  0  0  0
   -4.0366   -0.1406    0.0703 C   0  0  0  0  0  0  0  0  0  0  0  0
   -4.0180   -1.4657   -0.2599 C   0  0  0  0  0  0  0  0  0  0  0  0
   -5.1105   -2.0466   -0.9318 C   0  0  0  0  0  0  0  0  0  0  0  0
   -6.1975   -1.3433   -1.2707 C   0  0  0  0  0  0  0  0  0  0  0  0
   -7.8104   -2.1921   -2.1136 S   0  0  0  0  0  0  0  0  0  0  0  0
   -9.3446   -1.1862   -3.2495 F   0  0  0  0  0  0  0  0  0  0  0  0
   -6.9292   -3.7868   -3.9026 F   0  0  0  0  0  0  0  0  0  0  0  0
   -7.1767   -1.4509   -4.2695 F   0  0  0  0  0  0  0  0  0  0  0  0
   -8.1023   -4.3398   -1.9781 F   0  0  0  0  0  0  0  0  0  0  0  0
   -9.1493   -2.3652   -1.1663 F   0  0  0  0  0  0  0  0  0  0  0  0
   -6.1710   -0.0116   -0.9187 C   0  0  0  0  0  0  0  0  0  0  0  0
   -5.1279    0.6294   -0.2552 C   0  0  0  0  0  0  0  0  0  0  0  0
   -3.0769    1.1703    1.9406 C   0  0  0  0  0  0  0  0  0  0  0  0
   -2.0121    1.7404    2.5997 C   0  0  0  0  0  0  0  0  0  0  0  0
   -0.6862    1.6179    2.0973 C   0  0  0  0  0  0  0  0  0  0  0  0
    0.4132    1.9981    2.8283 C   0  0  0  0  0  0  0  0  0  0  0  0
    0.2294    2.5476    4.0876 C   0  0  0  0  0  0  0  0  0  0  0  0
   -1.0555    2.6967    4.5844 C   0  0  0  0  0  0  0  0  0  0  0  0
   -2.1476    2.2995    3.8554 C   0  0  0  0  0  0  0  0  0  0  0  0
   -0.5938    0.9144    0.9437 C   0  0  0  0  0  0  0  0  0  0  0  0
    0.7594    1.1591    0.3602 C   0  0  0  0  0  0  0  0  0  0  0  0
    1.6531    0.1228    0.0071 C   0  0  0  0  0  0  0  0  0  0  0  0
    1.2544   -1.2068   -0.1390 O   0  0  0  0  0  0  0  0  0  0  0  0
    2.9350    0.4908   -0.2163 C   0  0  0  0  0  0  0  0  0  0  0  0
    3.9095   -0.5476   -0.5754 C   0  0  0  0  0  0  0  0  0  0  0  0
    4.7962   -0.3338   -1.6038 C   0  0  0  0  0  0  0  0  0  0  0  0
    5.7434   -1.3032   -1.9768 C   0  0  0  0  0  0  0  0  0  0  0  0
    5.8270   -2.4800   -1.3479 C   0  0  0  0  0  0  0  0  0  0  0  0
    7.2148   -3.8166   -1.8552 S   0  0  0  0  0  0  0  0  0  0  0  0
    7.3663   -5.8617   -1.1810 F   0  0  0  0  0  0  0  0  0  0  0  0
    7.5625   -3.9267   -4.2239 F   0  0  0  0  0  0  0  0  0  0  0  0
    5.9451   -5.1576   -2.9965 F   0  0  0  0  0  0  0  0  0  0  0  0
    9.1335   -3.1071   -2.7279 F   0  0  0  0  0  0  0  0  0  0  0  0
    8.5331   -3.8546   -0.5521 F   0  0  0  0  0  0  0  0  0  0  0  0
    4.9334   -2.6771   -0.3237 C   0  0  0  0  0  0  0  0  0  0  0  0
    3.9686   -1.7462    0.0906 C   0  0  0  0  0  0  0  0  0  0  0  0
    3.3431    1.8175   -0.1148 C   0  0  0  0  0  0  0  0  0  0  0  0
    2.4182    2.7897    0.2136 C   0  0  0  0  0  0  0  0  0  0  0  0
    1.0527    2.4730    0.4640 C   0  0  0  0  0  0  0  0  0  0  0  0
    0.0910    3.4445    0.5932 C   0  0  0  0  0  0  0  0  0  0  0  0
    0.4566    4.7796    0.5085 C   0  0  0  0  0  0  0  0  0  0  0  0
    1.7887    5.1093    0.2881 C   0  0  0  0  0  0  0  0  0  0  0  0
    2.7438    4.1296    0.1426 C   0  0  0  0  0  0  0  0  0  0  0  0
   -0.8617   -3.0254    0.4952 H   0  0  0  0  0  0  0  0  0  0  0  0
   -3.2273   -2.1471   -0.0440 H   0  0  0  0  0  0  0  0  0  0  0  0
   -5.0697   -3.0875   -1.1793 H   0  0  0  0  0  0  0  0  0  0  0  0
   -7.0935    0.5081   -1.2343 H   0  0  0  0  0  0  0  0  0  0  0  0
   -5.2077    1.6429   -0.0331 H   0  0  0  0  0  0  0  0  0  0  0  0
   -4.0690    1.2874    2.3400 H   0  0  0  0  0  0  0  0  0  0  0  0
    1.4509    1.8273    2.6323 H   0  0  0  0  0  0  0  0  0  0  0  0
    1.0769    2.8570    4.6696 H   0  0  0  0  0  0  0  0  0  0  0  0
   -1.2290    3.1343    5.5487 H   0  0  0  0  0  0  0  0  0  0  0  0
   -3.1709    2.4059    4.2313 H   0  0  0  0  0  0  0  0  0  0  0  0
    4.8376    0.5637   -2.1905 H   0  0  0  0  0  0  0  0  0  0  0  0
    6.4162   -1.0968   -2.7842 H   0  0  0  0  0  0  0  0  0  0  0  0
    5.0544   -3.6606    0.1452 H   0  0  0  0  0  0  0  0  0  0  0  0
    3.3441   -2.0200    0.8898 H   0  0  0  0  0  0  0  0  0  0  0  0
    4.3810    2.0959   -0.2911 H   0  0  0  0  0  0  0  0  0  0  0  0
   -0.9742    3.3498    0.6301 H   0  0  0  0  0  0  0  0  0  0  0  0
   -0.2481    5.5887    0.6108 H   0  0  0  0  0  0  0  0  0  0  0  0
    2.1014    6.1355    0.2355 H   0  0  0  0  0  0  0  0  0  0  0  0
    3.7979    4.3933   -0.0351 H   0  0  0  0  0  0  0  0  0  0  0  0
  1  2  2  0  0  0  0
  2  4  1  0  0  0  0
  2  3  1  0  0  0  0
  2 29  1  0  0  0  0
  3 50  1  0  0  0  0
  4  5  1  0  0  0  0
  5  6  2  0  0  0  0
  5 26  1  0  0  0  0
  6 19  1  0  0  0  0
  7  6  1  0  0  0  0
  8 51  1  0  0  0  0
  8  7  2  0  0  0  0
  9  8  1  0  0  0  0
 10  9  2  0  0  0  0
 10 17  1  0  0  0  0
 11 10  1  0  0  0  0
 11 16  1  0  0  0  0
 17 18  2  0  0  0  0
 18 54  1  0  0  0  0
 18  7  1  0  0  0  0
 19 55  1  0  0  0  0
 19 20  2  0  0  0  0
 20 25  1  0  0  0  0
 21 20  1  0  0  0  0
 21 22  1  0  0  0  0
 22 23  2  0  0  0  0
 23 24  1  0  0  0  0
 23 57  1  0  0  0  0
 24 58  1  0  0  0  0
 25 59  1  0  0  0  0
 25 24  2  0  0  0  0
 26 21  2  0  0  0  0
 27 45  1  0  0  0  0
 27 26  1  0  0  0  0
 28 27  2  0  0  0  0
 29 28  1  0  0  0  0
 30 43  2  0  0  0  0
 30 28  1  0  0  0  0
 31 30  1  0  0  0  0
 31 42  2  0  0  0  0
 32 31  1  0  0  0  0
 33 32  2  0  0  0  0
 33 34  1  0  0  0  0
 34 41  2  0  0  0  0
 35 34  1  0  0  0  0
 35 40  1  0  0  0  0
 41 42  1  0  0  0  0
 41 62  1  0  0  0  0
 42 63  1  0  0  0  0
 43 44  1  0  0  0  0
 44 45  1  0  0  0  0
 45 46  2  0  0  0  0
 46 65  1  0  0  0  0
 47 46  1  0  0  0  0
 47 66  1  0  0  0  0
 48 47  2  0  0  0  0
 49 44  2  0  0  0  0
 49 48  1  0  0  0  0
 52  9  1  0  0  0  0
 53 17  1  0  0  0  0
 56 22  1  0  0  0  0
 60 32  1  0  0  0  0
 61 33  1  0  0  0  0
 64 43  1  0  0  0  0
 67 48  1  0  0  0  0
 68 49  1  0  0  0  0
M  RAD  8  12   2  13   2  14   2  15   2  36   2  37   2  38   2  39   2
M  END
$$$$
