O=P1(O)OC2=C([Si](C3=CC=CC=C3)(C)C4=CC=CC=C4)C=C5C(C=CC=C5)=C2C6=C(O1)C([Si](C7=CC=CC=C7)(C8=CC=CC=C8)C)=CC9=C6C=CC=C9
 OpenBabel09032010383D

 90 98  0  0  0  0  0  0  0  0999 V2000
    1.3266   -1.9605   -2.3309 O   0  0  0  0  0  0  0  0  0  0  0  0
    0.4476   -1.4446   -1.2319 P   0  0  0  0  0  0  0  0  0  0  0  0
   -0.2724   -2.6157   -0.4045 O   0  0  0  0  0  0  0  0  0  0  0  0
    1.2022   -0.6022   -0.0854 O   0  0  0  0  0  0  0  0  0  0  0  0
    1.7067    0.6153   -0.4659 C   0  0  0  0  0  0  0  0  0  0  0  0
    3.1024    0.7546   -0.5776 C   0  0  0  0  0  0  0  0  0  0  0  0
    4.3763   -0.6079   -0.2159 Si  0  0  0  0  0  0  0  0  0  0  0  0
    5.6830    0.1775    0.9256 C   0  0  0  0  0  0  0  0  0  0  0  0
    5.3619    1.2224    1.8140 C   0  0  0  0  0  0  0  0  0  0  0  0
    6.3364    1.7893    2.6389 C   0  0  0  0  0  0  0  0  0  0  0  0
    7.6461    1.3207    2.5967 C   0  0  0  0  0  0  0  0  0  0  0  0
    7.9839    0.2828    1.7326 C   0  0  0  0  0  0  0  0  0  0  0  0
    7.0123   -0.2864    0.9045 C   0  0  0  0  0  0  0  0  0  0  0  0
    5.1349   -1.2155   -1.8066 C   0  0  0  0  0  0  0  0  0  0  0  0
    3.5988   -1.9823    0.8087 C   0  0  0  0  0  0  0  0  0  0  0  0
    3.2471   -3.2063    0.2057 C   0  0  0  0  0  0  0  0  0  0  0  0
    2.6695   -4.2395    0.9493 C   0  0  0  0  0  0  0  0  0  0  0  0
    2.4324   -4.0737    2.3098 C   0  0  0  0  0  0  0  0  0  0  0  0
    2.7682   -2.8727    2.9269 C   0  0  0  0  0  0  0  0  0  0  0  0
    3.3438   -1.8364    2.1850 C   0  0  0  0  0  0  0  0  0  0  0  0
    3.5792    1.9930   -1.0390 C   0  0  0  0  0  0  0  0  0  0  0  0
    2.7180    3.0412   -1.3801 C   0  0  0  0  0  0  0  0  0  0  0  0
    1.3165    2.8861   -1.2352 C   0  0  0  0  0  0  0  0  0  0  0  0
    0.5160    3.9674   -1.6871 C   0  0  0  0  0  0  0  0  0  0  0  0
    1.0632    5.1517   -2.1880 C   0  0  0  0  0  0  0  0  0  0  0  0
    2.4384    5.2914   -2.2742 C   0  0  0  0  0  0  0  0  0  0  0  0
    3.2590    4.2391   -1.8789 C   0  0  0  0  0  0  0  0  0  0  0  0
    0.7759    1.6621   -0.7008 C   0  0  0  0  0  0  0  0  0  0  0  0
   -0.6272    1.4801   -0.3725 C   0  0  0  0  0  0  0  0  0  0  0  0
   -1.3843    0.3902   -0.8987 C   0  0  0  0  0  0  0  0  0  0  0  0
   -0.7763   -0.5230   -1.7299 O   0  0  0  0  0  0  0  0  0  0  0  0
   -2.7765    0.2453   -0.7125 C   0  0  0  0  0  0  0  0  0  0  0  0
   -3.7747   -1.2245   -1.4156 Si  0  0  0  0  0  0  0  0  0  0  0  0
   -3.5793   -2.5313   -0.0579 C   0  0  0  0  0  0  0  0  0  0  0  0
   -3.6889   -2.2005    1.3075 C   0  0  0  0  0  0  0  0  0  0  0  0
   -3.5176   -3.1694    2.2992 C   0  0  0  0  0  0  0  0  0  0  0  0
   -3.2359   -4.4856    1.9480 C   0  0  0  0  0  0  0  0  0  0  0  0
   -3.1299   -4.8359    0.6053 C   0  0  0  0  0  0  0  0  0  0  0  0
   -3.3015   -3.8700   -0.3901 C   0  0  0  0  0  0  0  0  0  0  0  0
   -5.5877   -0.6953   -1.4505 C   0  0  0  0  0  0  0  0  0  0  0  0
   -6.5861   -1.3749   -0.7290 C   0  0  0  0  0  0  0  0  0  0  0  0
   -7.9203   -0.9601   -0.7834 C   0  0  0  0  0  0  0  0  0  0  0  0
   -8.2838    0.1344   -1.5629 C   0  0  0  0  0  0  0  0  0  0  0  0
   -7.3147    0.8145   -2.2939 C   0  0  0  0  0  0  0  0  0  0  0  0
   -5.9803    0.4030   -2.2429 C   0  0  0  0  0  0  0  0  0  0  0  0
   -3.2266   -1.7898   -3.0938 C   0  0  0  0  0  0  0  0  0  0  0  0
   -3.4280    1.2113    0.0692 C   0  0  0  0  0  0  0  0  0  0  0  0
   -2.7348    2.2569    0.6816 C   0  0  0  0  0  0  0  0  0  0  0  0
   -1.3355    2.3878    0.4975 C   0  0  0  0  0  0  0  0  0  0  0  0
   -0.7065    3.4152    1.2506 C   0  0  0  0  0  0  0  0  0  0  0  0
   -1.4170    4.2988    2.0688 C   0  0  0  0  0  0  0  0  0  0  0  0
   -2.7914    4.1772    2.1816 C   0  0  0  0  0  0  0  0  0  0  0  0
   -3.4437    3.1564    1.4978 C   0  0  0  0  0  0  0  0  0  0  0  0
   -0.7553   -2.3029    0.3822 H   0  0  0  0  0  0  0  0  0  0  0  0
    4.3458    1.6095    1.8810 H   0  0  0  0  0  0  0  0  0  0  0  0
    6.0703    2.5964    3.3167 H   0  0  0  0  0  0  0  0  0  0  0  0
    8.4019    1.7613    3.2406 H   0  0  0  0  0  0  0  0  0  0  0  0
    9.0057   -0.0881    1.7044 H   0  0  0  0  0  0  0  0  0  0  0  0
    7.3123   -1.1018    0.2481 H   0  0  0  0  0  0  0  0  0  0  0  0
    4.3649   -1.5755   -2.4958 H   0  0  0  0  0  0  0  0  0  0  0  0
    5.6836   -0.4134   -2.3099 H   0  0  0  0  0  0  0  0  0  0  0  0
    5.8331   -2.0382   -1.6250 H   0  0  0  0  0  0  0  0  0  0  0  0
    3.4010   -3.3725   -0.8607 H   0  0  0  0  0  0  0  0  0  0  0  0
    2.3997   -5.1713    0.4583 H   0  0  0  0  0  0  0  0  0  0  0  0
    1.9864   -4.8788    2.8866 H   0  0  0  0  0  0  0  0  0  0  0  0
    2.5895   -2.7396    3.9909 H   0  0  0  0  0  0  0  0  0  0  0  0
    3.5913   -0.9140    2.7069 H   0  0  0  0  0  0  0  0  0  0  0  0
    4.6538    2.1456   -1.1607 H   0  0  0  0  0  0  0  0  0  0  0  0
   -0.5700    3.8951   -1.6647 H   0  0  0  0  0  0  0  0  0  0  0  0
    0.4089    5.9561   -2.5126 H   0  0  0  0  0  0  0  0  0  0  0  0
    2.8739    6.2077   -2.6630 H   0  0  0  0  0  0  0  0  0  0  0  0
    4.3368    4.3590   -1.9757 H   0  0  0  0  0  0  0  0  0  0  0  0
   -3.9138   -1.1833    1.6243 H   0  0  0  0  0  0  0  0  0  0  0  0
   -3.6083   -2.8951    3.3474 H   0  0  0  0  0  0  0  0  0  0  0  0
   -3.1013   -5.2392    2.7193 H   0  0  0  0  0  0  0  0  0  0  0  0
   -2.9067   -5.8634    0.3282 H   0  0  0  0  0  0  0  0  0  0  0  0
   -3.1997   -4.1855   -1.4277 H   0  0  0  0  0  0  0  0  0  0  0  0
   -6.3492   -2.2423   -0.1146 H   0  0  0  0  0  0  0  0  0  0  0  0
   -8.6772   -1.4979   -0.2176 H   0  0  0  0  0  0  0  0  0  0  0  0
   -9.3220    0.4531   -1.6045 H   0  0  0  0  0  0  0  0  0  0  0  0
   -7.5957    1.6661   -2.9083 H   0  0  0  0  0  0  0  0  0  0  0  0
   -5.2503    0.9588   -2.8311 H   0  0  0  0  0  0  0  0  0  0  0  0
   -3.9235   -2.5278   -3.5039 H   0  0  0  0  0  0  0  0  0  0  0  0
   -3.1816   -0.9520   -3.7967 H   0  0  0  0  0  0  0  0  0  0  0  0
   -2.2377   -2.2567   -3.0663 H   0  0  0  0  0  0  0  0  0  0  0  0
   -4.5020    1.1349    0.2462 H   0  0  0  0  0  0  0  0  0  0  0  0
    0.3746    3.5384    1.2195 H   0  0  0  0  0  0  0  0  0  0  0  0
   -0.8879    5.0744    2.6158 H   0  0  0  0  0  0  0  0  0  0  0  0
   -3.3544    4.8605    2.8117 H   0  0  0  0  0  0  0  0  0  0  0  0
   -4.5222    3.0612    1.6181 H   0  0  0  0  0  0  0  0  0  0  0  0
  1  2  2  0  0  0  0
  2  3  1  0  0  0  0
  2  4  1  0  0  0  0
  3 54  1  0  0  0  0
  5  4  1  0  0  0  0
  6  5  1  0  0  0  0
  6  7  1  0  0  0  0
  7 15  1  0  0  0  0
  7  8  1  0  0  0  0
  8  9  1  0  0  0  0
  9 55  1  0  0  0  0
  9 10  2  0  0  0  0
 10 56  1  0  0  0  0
 11 10  1  0  0  0  0
 11 57  1  0  0  0  0
 12 11  2  0  0  0  0
 13  8  2  0  0  0  0
 13 12  1  0  0  0  0
 14 62  1  0  0  0  0
 14  7  1  0  0  0  0
 15 20  1  0  0  0  0
 16 15  2  0  0  0  0
 16 17  1  0  0  0  0
 17 18  2  0  0  0  0
 18 65  1  0  0  0  0
 18 19  1  0  0  0  0
 19 66  1  0  0  0  0
 20 67  1  0  0  0  0
 20 19  2  0  0  0  0
 21  6  2  0  0  0  0
 22 23  1  0  0  0  0
 22 21  1  0  0  0  0
 23 28  1  0  0  0  0
 24 69  1  0  0  0  0
 24 23  2  0  0  0  0
 25 24  1  0  0  0  0
 26 25  2  0  0  0  0
 26 27  1  0  0  0  0
 27 22  2  0  0  0  0
 28  5  2  0  0  0  0
 28 29  1  0  0  0  0
 29 49  2  0  0  0  0
 30 32  2  0  0  0  0
 30 29  1  0  0  0  0
 31  2  1  0  0  0  0
 31 30  1  0  0  0  0
 32 47  1  0  0  0  0
 33 32  1  0  0  0  0
 33 34  1  0  0  0  0
 34 35  1  0  0  0  0
 35 73  1  0  0  0  0
 35 36  2  0  0  0  0
 36 74  1  0  0  0  0
 37 36  1  0  0  0  0
 37 75  1  0  0  0  0
 38 37  2  0  0  0  0
 39 34  2  0  0  0  0
 39 38  1  0  0  0  0
 40 33  1  0  0  0  0
 40 41  2  0  0  0  0
 41 78  1  0  0  0  0
 42 41  1  0  0  0  0
 42 79  1  0  0  0  0
 43 42  2  0  0  0  0
 44 45  2  0  0  0  0
 44 43  1  0  0  0  0
 45 40  1  0  0  0  0
 46 85  1  0  0  0  0
 46 33  1  0  0  0  0
 47 86  1  0  0  0  0
 47 48  2  0  0  0  0
 48 53  1  0  0  0  0
 49 48  1  0  0  0  0
 49 50  1  0  0  0  0
 50 51  2  0  0  0  0
 51 52  1  0  0  0  0
 51 88  1  0  0  0  0
 52 89  1  0  0  0  0
 53 90  1  0  0  0  0
 53 52  2  0  0  0  0
 58 12  1  0  0  0  0
 59 13  1  0  0  0  0
 60 14  1  0  0  0  0
 61 14  1  0  0  0  0
 63 16  1  0  0  0  0
 64 17  1  0  0  0  0
 68 21  1  0  0  0  0
 70 25  1  0  0  0  0
 71 26  1  0  0  0  0
 72 27  1  0  0  0  0
 76 38  1  0  0  0  0
 77 39  1  0  0  0  0
 80 43  1  0  0  0  0
 81 44  1  0  0  0  0
 82 45  1  0  0  0  0
 83 46  1  0  0  0  0
 84 46  1  0  0  0  0
 87 50  1  0  0  0  0
M  END
$$$$
