O=P1(O)OC2=C(C3=CC(COC)=CC=C3)C=C4C(C=CC=C4)=C2C5=C(O1)C(C6=CC=CC(COC)=C6)=CC7=C5C=CC=C7
 OpenBabel09032010383D

 72 78  0  0  0  0  0  0  0  0999 V2000
    0.5227    2.2028    0.3147 O   0  0  0  0  0  0  0  0  0  0  0  0
   -0.0430    1.0211   -0.4098 P   0  0  0  0  0  0  0  0  0  0  0  0
   -0.8935    1.4561   -1.7035 O   0  0  0  0  0  0  0  0  0  0  0  0
    1.0131   -0.0526   -0.9855 O   0  0  0  0  0  0  0  0  0  0  0  0
    1.5432   -0.9628   -0.0944 C   0  0  0  0  0  0  0  0  0  0  0  0
    2.9135   -0.8442    0.1996 C   0  0  0  0  0  0  0  0  0  0  0  0
    3.7590    0.2011   -0.3920 C   0  0  0  0  0  0  0  0  0  0  0  0
    3.6970    1.5215    0.0787 C   0  0  0  0  0  0  0  0  0  0  0  0
    4.4671    2.5446   -0.4967 C   0  0  0  0  0  0  0  0  0  0  0  0
    4.3469    3.9491    0.0407 C   0  0  0  0  0  0  0  0  0  0  0  0
    4.5939    4.9099   -0.9875 O   0  0  0  0  0  0  0  0  0  0  0  0
    4.2951    6.2267   -0.5466 C   0  0  0  0  0  0  0  0  0  0  0  0
    5.3551    2.2165   -1.5274 C   0  0  0  0  0  0  0  0  0  0  0  0
    5.4440    0.9050   -1.9955 C   0  0  0  0  0  0  0  0  0  0  0  0
    4.6472   -0.0947   -1.4350 C   0  0  0  0  0  0  0  0  0  0  0  0
    3.4748   -1.7614    1.0890 C   0  0  0  0  0  0  0  0  0  0  0  0
    2.6985   -2.7461    1.7051 C   0  0  0  0  0  0  0  0  0  0  0  0
    1.3170   -2.8657    1.3949 C   0  0  0  0  0  0  0  0  0  0  0  0
    0.5892   -3.8299    2.1379 C   0  0  0  0  0  0  0  0  0  0  0  0
    1.1941   -4.6662    3.0797 C   0  0  0  0  0  0  0  0  0  0  0  0
    2.5528   -4.5570    3.3261 C   0  0  0  0  0  0  0  0  0  0  0  0
    3.2986   -3.5990    2.6463 C   0  0  0  0  0  0  0  0  0  0  0  0
    0.7151   -1.9987    0.4125 C   0  0  0  0  0  0  0  0  0  0  0  0
   -0.6432   -2.1509   -0.0760 C   0  0  0  0  0  0  0  0  0  0  0  0
   -1.5357   -1.0501   -0.0550 C   0  0  0  0  0  0  0  0  0  0  0  0
   -1.0938    0.1539    0.4471 O   0  0  0  0  0  0  0  0  0  0  0  0
   -2.8849   -1.1125   -0.4548 C   0  0  0  0  0  0  0  0  0  0  0  0
   -3.7656    0.0726   -0.4602 C   0  0  0  0  0  0  0  0  0  0  0  0
   -4.3970    0.4860   -1.6456 C   0  0  0  0  0  0  0  0  0  0  0  0
   -5.1869    1.6362   -1.6786 C   0  0  0  0  0  0  0  0  0  0  0  0
   -5.3557    2.3979   -0.5250 C   0  0  0  0  0  0  0  0  0  0  0  0
   -4.7519    2.0068    0.6756 C   0  0  0  0  0  0  0  0  0  0  0  0
   -4.8924    2.8546    1.9108 C   0  0  0  0  0  0  0  0  0  0  0  0
   -3.9689    3.9353    1.8066 O   0  0  0  0  0  0  0  0  0  0  0  0
   -3.9987    4.7614    2.9616 C   0  0  0  0  0  0  0  0  0  0  0  0
   -3.9659    0.8440    0.6967 C   0  0  0  0  0  0  0  0  0  0  0  0
   -3.3688   -2.3456   -0.8945 C   0  0  0  0  0  0  0  0  0  0  0  0
   -2.5401   -3.4676   -0.9888 C   0  0  0  0  0  0  0  0  0  0  0  0
   -1.1722   -3.3809   -0.6144 C   0  0  0  0  0  0  0  0  0  0  0  0
   -0.3854   -4.5360   -0.8579 C   0  0  0  0  0  0  0  0  0  0  0  0
   -0.9242   -5.7227   -1.3625 C   0  0  0  0  0  0  0  0  0  0  0  0
   -2.2738   -5.7923   -1.6652 C   0  0  0  0  0  0  0  0  0  0  0  0
   -3.0740   -4.6682   -1.4871 C   0  0  0  0  0  0  0  0  0  0  0  0
   -1.4995    2.1862   -1.4768 H   0  0  0  0  0  0  0  0  0  0  0  0
    3.0185    1.7636    0.8963 H   0  0  0  0  0  0  0  0  0  0  0  0
    3.3353    4.1029    0.4361 H   0  0  0  0  0  0  0  0  0  0  0  0
    5.0738    4.0870    0.8494 H   0  0  0  0  0  0  0  0  0  0  0  0
    4.9025    6.4868    0.3258 H   0  0  0  0  0  0  0  0  0  0  0  0
    4.5310    6.9225   -1.3562 H   0  0  0  0  0  0  0  0  0  0  0  0
    3.2313    6.3195   -0.3073 H   0  0  0  0  0  0  0  0  0  0  0  0
    5.9721    2.9895   -1.9808 H   0  0  0  0  0  0  0  0  0  0  0  0
    6.1266    0.6651   -2.8062 H   0  0  0  0  0  0  0  0  0  0  0  0
    4.7125   -1.1082   -1.8241 H   0  0  0  0  0  0  0  0  0  0  0  0
    4.5345   -1.6762    1.3290 H   0  0  0  0  0  0  0  0  0  0  0  0
   -0.4857   -3.9368    2.0013 H   0  0  0  0  0  0  0  0  0  0  0  0
    0.5951   -5.3940    3.6203 H   0  0  0  0  0  0  0  0  0  0  0  0
    3.0308   -5.2021    4.0578 H   0  0  0  0  0  0  0  0  0  0  0  0
    4.3601   -3.5123    2.8717 H   0  0  0  0  0  0  0  0  0  0  0  0
   -4.2525   -0.0771   -2.5661 H   0  0  0  0  0  0  0  0  0  0  0  0
   -5.6556    1.9463   -2.6090 H   0  0  0  0  0  0  0  0  0  0  0  0
   -5.9493    3.3085   -0.5660 H   0  0  0  0  0  0  0  0  0  0  0  0
   -4.6819    2.2624    2.8095 H   0  0  0  0  0  0  0  0  0  0  0  0
   -5.9166    3.2391    1.9879 H   0  0  0  0  0  0  0  0  0  0  0  0
   -4.9945    5.1942    3.0979 H   0  0  0  0  0  0  0  0  0  0  0  0
   -3.2807    5.5741    2.8227 H   0  0  0  0  0  0  0  0  0  0  0  0
   -3.7113    4.1897    3.8493 H   0  0  0  0  0  0  0  0  0  0  0  0
   -3.4834    0.5467    1.6272 H   0  0  0  0  0  0  0  0  0  0  0  0
   -4.4138   -2.4237   -1.1935 H   0  0  0  0  0  0  0  0  0  0  0  0
    0.6860   -4.5241   -0.6668 H   0  0  0  0  0  0  0  0  0  0  0  0
   -0.2811   -6.5841   -1.5226 H   0  0  0  0  0  0  0  0  0  0  0  0
   -2.7007   -6.7103   -2.0589 H   0  0  0  0  0  0  0  0  0  0  0  0
   -4.1260   -4.7331   -1.7590 H   0  0  0  0  0  0  0  0  0  0  0  0
  2  1  2  0  0  0  0
  2 26  1  0  0  0  0
  3 44  1  0  0  0  0
  3  2  1  0  0  0  0
  4  2  1  0  0  0  0
  4  5  1  0  0  0  0
  5  6  2  0  0  0  0
  5 23  1  0  0  0  0
  6 16  1  0  0  0  0
  7  8  1  0  0  0  0
  7  6  1  0  0  0  0
  8 45  1  0  0  0  0
  9 10  1  0  0  0  0
  9  8  2  0  0  0  0
 10 46  1  0  0  0  0
 10 47  1  0  0  0  0
 11 12  1  0  0  0  0
 11 10  1  0  0  0  0
 12 50  1  0  0  0  0
 12 48  1  0  0  0  0
 13  9  1  0  0  0  0
 14 13  2  0  0  0  0
 14 15  1  0  0  0  0
 15  7  2  0  0  0  0
 16 54  1  0  0  0  0
 16 17  2  0  0  0  0
 17 22  1  0  0  0  0
 18 17  1  0  0  0  0
 18 19  1  0  0  0  0
 19 20  2  0  0  0  0
 20 21  1  0  0  0  0
 20 56  1  0  0  0  0
 21 57  1  0  0  0  0
 22 58  1  0  0  0  0
 22 21  2  0  0  0  0
 23 18  2  0  0  0  0
 24 25  1  0  0  0  0
 24 23  1  0  0  0  0
 25 26  1  0  0  0  0
 27 25  2  0  0  0  0
 28 27  1  0  0  0  0
 28 36  2  0  0  0  0
 29 28  1  0  0  0  0
 30 29  2  0  0  0  0
 30 31  1  0  0  0  0
 31 32  2  0  0  0  0
 32 36  1  0  0  0  0
 32 33  1  0  0  0  0
 33 63  1  0  0  0  0
 33 62  1  0  0  0  0
 34 33  1  0  0  0  0
 34 35  1  0  0  0  0
 35 64  1  0  0  0  0
 35 66  1  0  0  0  0
 36 67  1  0  0  0  0
 37 27  1  0  0  0  0
 38 37  2  0  0  0  0
 38 39  1  0  0  0  0
 39 24  2  0  0  0  0
 40 69  1  0  0  0  0
 40 39  1  0  0  0  0
 41 40  2  0  0  0  0
 42 43  2  0  0  0  0
 42 41  1  0  0  0  0
 43 38  1  0  0  0  0
 49 12  1  0  0  0  0
 51 13  1  0  0  0  0
 52 14  1  0  0  0  0
 53 15  1  0  0  0  0
 55 19  1  0  0  0  0
 59 29  1  0  0  0  0
 60 30  1  0  0  0  0
 61 31  1  0  0  0  0
 65 35  1  0  0  0  0
 68 37  1  0  0  0  0
 70 41  1  0  0  0  0
 71 42  1  0  0  0  0
 72 43  1  0  0  0  0
M  END
$$$$
