O=P1(O)OC2=C([Si](C3=CC=C(C(C)(C)C)C=C3)(C4=CC=C(C(C)(C)C)C=C4)C5=CC=C(C(C)(C)C)C=C5)C=C6C(CCCC6)=C2C7=C(O1)C([Si](C8=CC=C(C(C)(C)C)C=C8)(C9=CC=C(C(C)(C)C)C=C9)C%10=CC=C(C(C)(C)C)C=C%10)=CC%11=C7CCCC%11
 OpenBabel09032010373D

184192  0  0  0  0  0  0  0  0999 V2000
   -0.3646   -2.4925   -0.3374 O   0  0  0  0  0  0  0  0  0  0  0  0
   -0.0189   -1.0353   -0.3764 P   0  0  0  0  0  0  0  0  0  0  0  0
    0.2154   -0.5152   -1.8792 O   0  0  0  0  0  0  0  0  0  0  0  0
   -1.1348   -0.0041    0.1846 O   0  0  0  0  0  0  0  0  0  0  0  0
   -1.3758   -0.0290    1.5350 C   0  0  0  0  0  0  0  0  0  0  0  0
   -2.6674   -0.3848    1.9941 C   0  0  0  0  0  0  0  0  0  0  0  0
   -4.1780   -0.4404    0.8797 Si  0  0  0  0  0  0  0  0  0  0  0  0
   -5.6277   -1.2327    1.7687 C   0  0  0  0  0  0  0  0  0  0  0  0
   -6.1351   -2.4934    1.4255 C   0  0  0  0  0  0  0  0  0  0  0  0
   -7.2265   -3.0511    2.1071 C   0  0  0  0  0  0  0  0  0  0  0  0
   -7.8685   -2.3766    3.1593 C   0  0  0  0  0  0  0  0  0  0  0  0
   -9.0633   -3.0228    3.8798 C   0  0  0  0  0  0  0  0  0  0  0  0
   -9.6489   -2.1563    5.0177 C   0  0  0  0  0  0  0  0  0  0  0  0
  -10.2016   -3.2797    2.8689 C   0  0  0  0  0  0  0  0  0  0  0  0
   -8.6282   -4.3650    4.5069 C   0  0  0  0  0  0  0  0  0  0  0  0
   -7.3710   -1.1119    3.4956 C   0  0  0  0  0  0  0  0  0  0  0  0
   -6.2802   -0.5522    2.8153 C   0  0  0  0  0  0  0  0  0  0  0  0
   -3.8020   -1.3130   -0.7147 C   0  0  0  0  0  0  0  0  0  0  0  0
   -3.3614   -2.6455   -0.7268 C   0  0  0  0  0  0  0  0  0  0  0  0
   -3.0433   -3.3080   -1.9221 C   0  0  0  0  0  0  0  0  0  0  0  0
   -3.1450   -2.6686   -3.1630 C   0  0  0  0  0  0  0  0  0  0  0  0
   -2.7780   -3.3559   -4.4870 C   0  0  0  0  0  0  0  0  0  0  0  0
   -2.3342   -4.8273   -4.3251 C   0  0  0  0  0  0  0  0  0  0  0  0
   -1.6110   -2.5965   -5.1542 C   0  0  0  0  0  0  0  0  0  0  0  0
   -3.9970   -3.3497   -5.4348 C   0  0  0  0  0  0  0  0  0  0  0  0
   -3.5878   -1.3364   -3.1533 C   0  0  0  0  0  0  0  0  0  0  0  0
   -3.9081   -0.6741   -1.9602 C   0  0  0  0  0  0  0  0  0  0  0  0
   -4.7269    1.3241    0.4998 C   0  0  0  0  0  0  0  0  0  0  0  0
   -6.0353    1.5878    0.0517 C   0  0  0  0  0  0  0  0  0  0  0  0
   -6.4664    2.8915   -0.2346 C   0  0  0  0  0  0  0  0  0  0  0  0
   -5.6090    3.9906   -0.0940 C   0  0  0  0  0  0  0  0  0  0  0  0
   -6.0456    5.4333   -0.3999 C   0  0  0  0  0  0  0  0  0  0  0  0
   -7.5141    5.5563   -0.8655 C   0  0  0  0  0  0  0  0  0  0  0  0
   -5.1602    6.0160   -1.5225 C   0  0  0  0  0  0  0  0  0  0  0  0
   -5.8949    6.3014    0.8681 C   0  0  0  0  0  0  0  0  0  0  0  0
   -4.3002    3.7245    0.3448 C   0  0  0  0  0  0  0  0  0  0  0  0
   -3.8669    2.4234    0.6350 C   0  0  0  0  0  0  0  0  0  0  0  0
   -2.7968   -0.6119    3.3742 C   0  0  0  0  0  0  0  0  0  0  0  0
   -1.7117   -0.4578    4.2407 C   0  0  0  0  0  0  0  0  0  0  0  0
   -0.4821    0.0362    3.7605 C   0  0  0  0  0  0  0  0  0  0  0  0
    0.6383    0.1344    4.7801 C   0  0  0  0  0  0  0  0  0  0  0  0
    0.6998   -1.1418    5.6217 C   0  0  0  0  0  0  0  0  0  0  0  0
   -0.6457   -1.5388    6.2421 C   0  0  0  0  0  0  0  0  0  0  0  0
   -1.8458   -0.7512    5.7131 C   0  0  0  0  0  0  0  0  0  0  0  0
   -0.3096    0.3471    2.3882 C   0  0  0  0  0  0  0  0  0  0  0  0
    0.8285    1.0670    1.8721 C   0  0  0  0  0  0  0  0  0  0  0  0
    1.6800    0.5163    0.8720 C   0  0  0  0  0  0  0  0  0  0  0  0
    1.3768   -0.7165    0.3626 O   0  0  0  0  0  0  0  0  0  0  0  0
    2.8953    1.1087    0.4656 C   0  0  0  0  0  0  0  0  0  0  0  0
    4.1559    0.3263   -0.6895 Si  0  0  0  0  0  0  0  0  0  0  0  0
    5.4199   -0.5916    0.3445 C   0  0  0  0  0  0  0  0  0  0  0  0
    5.5259   -0.4084    1.7323 C   0  0  0  0  0  0  0  0  0  0  0  0
    6.4741   -1.1074    2.4939 C   0  0  0  0  0  0  0  0  0  0  0  0
    7.3583   -2.0208    1.9052 C   0  0  0  0  0  0  0  0  0  0  0  0
    8.4068   -2.8041    2.7119 C   0  0  0  0  0  0  0  0  0  0  0  0
    8.3968   -2.4870    4.2245 C   0  0  0  0  0  0  0  0  0  0  0  0
    9.8203   -2.4730    2.1860 C   0  0  0  0  0  0  0  0  0  0  0  0
    8.1513   -4.3195    2.5617 C   0  0  0  0  0  0  0  0  0  0  0  0
    7.2520   -2.2042    0.5165 C   0  0  0  0  0  0  0  0  0  0  0  0
    6.3076   -1.5072   -0.2470 C   0  0  0  0  0  0  0  0  0  0  0  0
    3.4392   -0.8683   -1.9279 C   0  0  0  0  0  0  0  0  0  0  0  0
    3.1442   -2.1970   -1.5687 C   0  0  0  0  0  0  0  0  0  0  0  0
    2.5761   -3.1003   -2.4782 C   0  0  0  0  0  0  0  0  0  0  0  0
    2.2820   -2.7202   -3.7933 C   0  0  0  0  0  0  0  0  0  0  0  0
    1.6442   -3.6778   -4.8133 C   0  0  0  0  0  0  0  0  0  0  0  0
    2.6069   -3.8847   -6.0024 C   0  0  0  0  0  0  0  0  0  0  0  0
    0.3186   -3.0783   -5.3314 C   0  0  0  0  0  0  0  0  0  0  0  0
    1.3175   -5.0754   -4.2398 C   0  0  0  0  0  0  0  0  0  0  0  0
    2.6157   -1.4085   -4.1681 C   0  0  0  0  0  0  0  0  0  0  0  0
    3.1819   -0.5046   -3.2592 C   0  0  0  0  0  0  0  0  0  0  0  0
    5.0122    1.7197   -1.6152 C   0  0  0  0  0  0  0  0  0  0  0  0
    4.2624    2.7416   -2.2277 C   0  0  0  0  0  0  0  0  0  0  0  0
    4.8797    3.7955   -2.9162 C   0  0  0  0  0  0  0  0  0  0  0  0
    6.2737    3.8793   -3.0241 C   0  0  0  0  0  0  0  0  0  0  0  0
    6.9858    5.0201   -3.7697 C   0  0  0  0  0  0  0  0  0  0  0  0
    7.9088    5.7816   -2.7939 C   0  0  0  0  0  0  0  0  0  0  0  0
    7.8338    4.4383   -4.9215 C   0  0  0  0  0  0  0  0  0  0  0  0
    6.0228    6.0571   -4.3908 C   0  0  0  0  0  0  0  0  0  0  0  0
    7.0215    2.8601   -2.4097 C   0  0  0  0  0  0  0  0  0  0  0  0
    6.4078    1.8053   -1.7204 C   0  0  0  0  0  0  0  0  0  0  0  0
    3.2031    2.3609    1.0307 C   0  0  0  0  0  0  0  0  0  0  0  0
    2.3460    3.0105    1.9272 C   0  0  0  0  0  0  0  0  0  0  0  0
    1.1497    2.3820    2.3287 C   0  0  0  0  0  0  0  0  0  0  0  0
    0.1789    3.1517    3.2149 C   0  0  0  0  0  0  0  0  0  0  0  0
    0.3982    4.6633    3.2103 C   0  0  0  0  0  0  0  0  0  0  0  0
    1.8606    4.9653    3.4884 C   0  0  0  0  0  0  0  0  0  0  0  0
    2.7271    4.4064    2.3673 C   0  0  0  0  0  0  0  0  0  0  0  0
    0.5647   -1.2534   -2.4169 H   0  0  0  0  0  0  0  0  0  0  0  0
   -5.7083   -3.0762    0.6123 H   0  0  0  0  0  0  0  0  0  0  0  0
   -7.5707   -4.0335    1.7900 H   0  0  0  0  0  0  0  0  0  0  0  0
  -10.0194   -1.1949    4.6432 H   0  0  0  0  0  0  0  0  0  0  0  0
  -10.4939   -2.6596    5.5028 H   0  0  0  0  0  0  0  0  0  0  0  0
   -8.9035   -1.9554    5.7961 H   0  0  0  0  0  0  0  0  0  0  0  0
  -10.5152   -2.3483    2.3828 H   0  0  0  0  0  0  0  0  0  0  0  0
  -11.0802   -3.7099    3.3639 H   0  0  0  0  0  0  0  0  0  0  0  0
   -9.9047   -3.9787    2.0793 H   0  0  0  0  0  0  0  0  0  0  0  0
   -8.3000   -5.0883    3.7523 H   0  0  0  0  0  0  0  0  0  0  0  0
   -7.7978   -4.2218    5.2085 H   0  0  0  0  0  0  0  0  0  0  0  0
   -9.4540   -4.8301    5.0579 H   0  0  0  0  0  0  0  0  0  0  0  0
   -7.8150   -0.5198    4.2907 H   0  0  0  0  0  0  0  0  0  0  0  0
   -5.9490    0.4413    3.1221 H   0  0  0  0  0  0  0  0  0  0  0  0
   -3.2170   -3.1944    0.2050 H   0  0  0  0  0  0  0  0  0  0  0  0
   -2.6843   -4.3300   -1.8352 H   0  0  0  0  0  0  0  0  0  0  0  0
   -1.4375   -4.9124   -3.7002 H   0  0  0  0  0  0  0  0  0  0  0  0
   -2.0924   -5.2762   -5.2960 H   0  0  0  0  0  0  0  0  0  0  0  0
   -3.1242   -5.4393   -3.8742 H   0  0  0  0  0  0  0  0  0  0  0  0
   -0.7361   -2.5587   -4.4940 H   0  0  0  0  0  0  0  0  0  0  0  0
   -1.8783   -1.5638   -5.4042 H   0  0  0  0  0  0  0  0  0  0  0  0
   -1.3043   -3.0837   -6.0871 H   0  0  0  0  0  0  0  0  0  0  0  0
   -3.7701   -3.8678   -6.3739 H   0  0  0  0  0  0  0  0  0  0  0  0
   -4.3127   -2.3344   -5.6985 H   0  0  0  0  0  0  0  0  0  0  0  0
   -4.8561   -3.8528   -4.9753 H   0  0  0  0  0  0  0  0  0  0  0  0
   -3.6825   -0.7777   -4.0820 H   0  0  0  0  0  0  0  0  0  0  0  0
   -4.2275    0.3649   -2.0363 H   0  0  0  0  0  0  0  0  0  0  0  0
   -6.7514    0.7760   -0.0832 H   0  0  0  0  0  0  0  0  0  0  0  0
   -7.4936    3.0127   -0.5699 H   0  0  0  0  0  0  0  0  0  0  0  0
   -7.7778    6.6012   -1.0692 H   0  0  0  0  0  0  0  0  0  0  0  0
   -8.2113    5.1913   -0.1023 H   0  0  0  0  0  0  0  0  0  0  0  0
   -7.6932    4.9936   -1.7891 H   0  0  0  0  0  0  0  0  0  0  0  0
   -5.2209    5.4042   -2.4305 H   0  0  0  0  0  0  0  0  0  0  0  0
   -5.4726    7.0337   -1.7845 H   0  0  0  0  0  0  0  0  0  0  0  0
   -4.1051    6.0698   -1.2325 H   0  0  0  0  0  0  0  0  0  0  0  0
   -4.8552    6.3624    1.2077 H   0  0  0  0  0  0  0  0  0  0  0  0
   -6.4884    5.8962    1.6963 H   0  0  0  0  0  0  0  0  0  0  0  0
   -6.2330    7.3283    0.6866 H   0  0  0  0  0  0  0  0  0  0  0  0
   -3.5836    4.5341    0.4690 H   0  0  0  0  0  0  0  0  0  0  0  0
   -2.8375    2.3003    0.9647 H   0  0  0  0  0  0  0  0  0  0  0  0
   -3.7449   -0.9322    3.8030 H   0  0  0  0  0  0  0  0  0  0  0  0
    1.6126    0.2752    4.3017 H   0  0  0  0  0  0  0  0  0  0  0  0
    0.4612    0.9943    5.4352 H   0  0  0  0  0  0  0  0  0  0  0  0
    1.4532   -1.0311    6.4103 H   0  0  0  0  0  0  0  0  0  0  0  0
    1.0449   -1.9684    4.9859 H   0  0  0  0  0  0  0  0  0  0  0  0
   -0.8057   -2.6088    6.0550 H   0  0  0  0  0  0  0  0  0  0  0  0
   -0.6007   -1.4309    7.3326 H   0  0  0  0  0  0  0  0  0  0  0  0
   -2.7632   -1.3138    5.9224 H   0  0  0  0  0  0  0  0  0  0  0  0
   -1.9313    0.2042    6.2462 H   0  0  0  0  0  0  0  0  0  0  0  0
    4.8702    0.2806    2.2627 H   0  0  0  0  0  0  0  0  0  0  0  0
    6.4916   -0.9115    3.5626 H   0  0  0  0  0  0  0  0  0  0  0  0
    9.1608   -3.0681    4.7550 H   0  0  0  0  0  0  0  0  0  0  0  0
    7.4312   -2.7321    4.6819 H   0  0  0  0  0  0  0  0  0  0  0  0
    8.6070   -1.4283    4.4162 H   0  0  0  0  0  0  0  0  0  0  0  0
   10.5904   -2.9927    2.7680 H   0  0  0  0  0  0  0  0  0  0  0  0
    9.9541   -2.7712    1.1404 H   0  0  0  0  0  0  0  0  0  0  0  0
   10.0230   -1.3973    2.2499 H   0  0  0  0  0  0  0  0  0  0  0  0
    8.2497   -4.6557    1.5237 H   0  0  0  0  0  0  0  0  0  0  0  0
    8.8654   -4.9016    3.1559 H   0  0  0  0  0  0  0  0  0  0  0  0
    7.1422   -4.5846    2.8991 H   0  0  0  0  0  0  0  0  0  0  0  0
    7.9076   -2.9016   -0.0008 H   0  0  0  0  0  0  0  0  0  0  0  0
    6.2798   -1.6993   -1.3202 H   0  0  0  0  0  0  0  0  0  0  0  0
    3.3338   -2.5549   -0.5546 H   0  0  0  0  0  0  0  0  0  0  0  0
    2.3697   -4.1055   -2.1173 H   0  0  0  0  0  0  0  0  0  0  0  0
    2.1899   -4.5905   -6.7303 H   0  0  0  0  0  0  0  0  0  0  0  0
    2.8079   -2.9515   -6.5398 H   0  0  0  0  0  0  0  0  0  0  0  0
    3.5707   -4.2840   -5.6648 H   0  0  0  0  0  0  0  0  0  0  0  0
   -0.3777   -2.8886   -4.5059 H   0  0  0  0  0  0  0  0  0  0  0  0
    0.4699   -2.1300   -5.8585 H   0  0  0  0  0  0  0  0  0  0  0  0
   -0.1752   -3.7594   -6.0344 H   0  0  0  0  0  0  0  0  0  0  0  0
    2.2205   -5.5901   -3.8912 H   0  0  0  0  0  0  0  0  0  0  0  0
    0.8562   -5.7166   -5.0005 H   0  0  0  0  0  0  0  0  0  0  0  0
    0.6144   -5.0128   -3.4011 H   0  0  0  0  0  0  0  0  0  0  0  0
    2.4370   -1.0601   -5.1840 H   0  0  0  0  0  0  0  0  0  0  0  0
    3.4103    0.4938   -3.6285 H   0  0  0  0  0  0  0  0  0  0  0  0
    3.1726    2.7383   -2.1783 H   0  0  0  0  0  0  0  0  0  0  0  0
    4.2308    4.5450   -3.3610 H   0  0  0  0  0  0  0  0  0  0  0  0
    7.3410    6.1830   -1.9460 H   0  0  0  0  0  0  0  0  0  0  0  0
    8.6994    5.1419   -2.3866 H   0  0  0  0  0  0  0  0  0  0  0  0
    8.4031    6.6233   -3.2928 H   0  0  0  0  0  0  0  0  0  0  0  0
    7.2117    3.8641   -5.6182 H   0  0  0  0  0  0  0  0  0  0  0  0
    8.3253    5.2350   -5.4920 H   0  0  0  0  0  0  0  0  0  0  0  0
    8.6232    3.7708   -4.5589 H   0  0  0  0  0  0  0  0  0  0  0  0
    6.5761    6.8480   -4.9114 H   0  0  0  0  0  0  0  0  0  0  0  0
    5.4073    6.5451   -3.6260 H   0  0  0  0  0  0  0  0  0  0  0  0
    5.3526    5.5960   -5.1257 H   0  0  0  0  0  0  0  0  0  0  0  0
    8.1088    2.8701   -2.4544 H   0  0  0  0  0  0  0  0  0  0  0  0
    7.0565    1.0591   -1.2646 H   0  0  0  0  0  0  0  0  0  0  0  0
    4.1321    2.8711    0.7651 H   0  0  0  0  0  0  0  0  0  0  0  0
    0.2853    2.8024    4.2447 H   0  0  0  0  0  0  0  0  0  0  0  0
   -0.8530    2.9671    2.8944 H   0  0  0  0  0  0  0  0  0  0  0  0
    0.1038    5.0871    2.2419 H   0  0  0  0  0  0  0  0  0  0  0  0
   -0.2353    5.1289    3.9736 H   0  0  0  0  0  0  0  0  0  0  0  0
    2.0190    6.0459    3.5755 H   0  0  0  0  0  0  0  0  0  0  0  0
    2.1548    4.5194    4.4470 H   0  0  0  0  0  0  0  0  0  0  0  0
    3.7746    4.4189    2.6922 H   0  0  0  0  0  0  0  0  0  0  0  0
    2.6451    5.0662    1.4938 H   0  0  0  0  0  0  0  0  0  0  0  0
  2  1  2  0  0  0  0
  2  4  1  0  0  0  0
  2 48  1  0  0  0  0
  3  2  1  0  0  0  0
  4  5  1  0  0  0  0
  5  6  2  0  0  0  0
  5 45  1  0  0  0  0
  6 38  1  0  0  0  0
  7  8  1  0  0  0  0
  7  6  1  0  0  0  0
  8 17  1  0  0  0  0
  9  8  2  0  0  0  0
  9 10  1  0  0  0  0
 10 11  2  0  0  0  0
 11 16  1  0  0  0  0
 11 12  1  0  0  0  0
 12 15  1  0  0  0  0
 12 13  1  0  0  0  0
 13 92  1  0  0  0  0
 13 93  1  0  0  0  0
 14 95  1  0  0  0  0
 14 12  1  0  0  0  0
 15 99  1  0  0  0  0
 15 98  1  0  0  0  0
 16100  1  0  0  0  0
 17101  1  0  0  0  0
 17 16  2  0  0  0  0
 18  7  1  0  0  0  0
 19 18  1  0  0  0  0
 19102  1  0  0  0  0
 20103  1  0  0  0  0
 20 19  2  0  0  0  0
 21 26  2  0  0  0  0
 21 20  1  0  0  0  0
 22 23  1  0  0  0  0
 22 21  1  0  0  0  0
 23106  1  0  0  0  0
 23104  1  0  0  0  0
 24107  1  0  0  0  0
 25112  1  0  0  0  0
 25 22  1  0  0  0  0
 26 27  1  0  0  0  0
 27 18  2  0  0  0  0
 28 37  1  0  0  0  0
 28  7  1  0  0  0  0
 29 28  2  0  0  0  0
 30 31  2  0  0  0  0
 30 29  1  0  0  0  0
 31 36  1  0  0  0  0
 32 31  1  0  0  0  0
 32 35  1  0  0  0  0
 33 32  1  0  0  0  0
 33118  1  0  0  0  0
 34122  1  0  0  0  0
 34 32  1  0  0  0  0
 35123  1  0  0  0  0
 35124  1  0  0  0  0
 36126  1  0  0  0  0
 36 37  2  0  0  0  0
 37127  1  0  0  0  0
 38128  1  0  0  0  0
 38 39  2  0  0  0  0
 39 44  1  0  0  0  0
 40 39  1  0  0  0  0
 40 41  1  0  0  0  0
 41130  1  0  0  0  0
 41 42  1  0  0  0  0
 42 43  1  0  0  0  0
 42131  1  0  0  0  0
 43134  1  0  0  0  0
 44135  1  0  0  0  0
 44 43  1  0  0  0  0
 44136  1  0  0  0  0
 45 40  2  0  0  0  0
 46 83  2  0  0  0  0
 46 45  1  0  0  0  0
 47 46  1  0  0  0  0
 48 47  1  0  0  0  0
 49 47  2  0  0  0  0
 49 81  1  0  0  0  0
 50 51  1  0  0  0  0
 50 49  1  0  0  0  0
 51 52  1  0  0  0  0
 52137  1  0  0  0  0
 52 53  2  0  0  0  0
 53138  1  0  0  0  0
 54 53  1  0  0  0  0
 54 55  1  0  0  0  0
 55 56  1  0  0  0  0
 56141  1  0  0  0  0
 56140  1  0  0  0  0
 56139  1  0  0  0  0
 57144  1  0  0  0  0
 57 55  1  0  0  0  0
 57142  1  0  0  0  0
 58 55  1  0  0  0  0
 58147  1  0  0  0  0
 58146  1  0  0  0  0
 59 54  2  0  0  0  0
 60 51  2  0  0  0  0
 60 59  1  0  0  0  0
 61 62  1  0  0  0  0
 61 50  1  0  0  0  0
 62150  1  0  0  0  0
 63151  1  0  0  0  0
 63 62  2  0  0  0  0
 64 63  1  0  0  0  0
 65 68  1  0  0  0  0
 65 64  1  0  0  0  0
 66154  1  0  0  0  0
 66 65  1  0  0  0  0
 67155  1  0  0  0  0
 68158  1  0  0  0  0
 68160  1  0  0  0  0
 69 64  2  0  0  0  0
 69 70  1  0  0  0  0
 70 61  2  0  0  0  0
 71 50  1  0  0  0  0
 72163  1  0  0  0  0
 72 71  2  0  0  0  0
 73 72  1  0  0  0  0
 74 73  2  0  0  0  0
 74 79  1  0  0  0  0
 75 74  1  0  0  0  0
 75 76  1  0  0  0  0
 76166  1  0  0  0  0
 76165  1  0  0  0  0
 77170  1  0  0  0  0
 77 75  1  0  0  0  0
 78 75  1  0  0  0  0
 78172  1  0  0  0  0
 79 80  2  0  0  0  0
 80 71  1  0  0  0  0
 80175  1  0  0  0  0
 81 82  2  0  0  0  0
 82 83  1  0  0  0  0
 82 87  1  0  0  0  0
 83 84  1  0  0  0  0
 84177  1  0  0  0  0
 85 84  1  0  0  0  0
 85 86  1  0  0  0  0
 85180  1  0  0  0  0
 86181  1  0  0  0  0
 86182  1  0  0  0  0
 87183  1  0  0  0  0
 87 86  1  0  0  0  0
 88  3  1  0  0  0  0
 89  9  1  0  0  0  0
 90 10  1  0  0  0  0
 91 13  1  0  0  0  0
 94 14  1  0  0  0  0
 96 14  1  0  0  0  0
 97 15  1  0  0  0  0
105 23  1  0  0  0  0
108 24  1  0  0  0  0
109 24  1  0  0  0  0
110 25  1  0  0  0  0
111 25  1  0  0  0  0
113 26  1  0  0  0  0
114 27  1  0  0  0  0
115 29  1  0  0  0  0
116 30  1  0  0  0  0
117 33  1  0  0  0  0
119 33  1  0  0  0  0
120 34  1  0  0  0  0
121 34  1  0  0  0  0
125 35  1  0  0  0  0
129 41  1  0  0  0  0
132 42  1  0  0  0  0
133 43  1  0  0  0  0
143 57  1  0  0  0  0
145 58  1  0  0  0  0
148 59  1  0  0  0  0
149 60  1  0  0  0  0
152 66  1  0  0  0  0
153 66  1  0  0  0  0
156 67  1  0  0  0  0
157 67  1  0  0  0  0
159 68  1  0  0  0  0
161 69  1  0  0  0  0
162 70  1  0  0  0  0
164 73  1  0  0  0  0
167 76  1  0  0  0  0
168 77  1  0  0  0  0
169 77  1  0  0  0  0
171 78  1  0  0  0  0
173 78  1  0  0  0  0
174 79  1  0  0  0  0
176 81  1  0  0  0  0
178 84  1  0  0  0  0
179 85  1  0  0  0  0
184 87  1  0  0  0  0
M  RAD  4  22   2  24   2  65   2  67   2
M  END
$$$$
