O=P1(O)OC2=C(C3=CC=C(C4=CC=C(C=CC=C5)C5=C4)C=C3)C=C6C(C=CC=C6)=C2C7=C(O1)C(C8=CC=C(C9=CC(C=CC=C%10)=C%10C=C9)C=C8)=CC%11=C7C=CC=C%11
 OpenBabel09032010373D

 90100  0  0  0  0  0  0  0  0999 V2000
   -0.5410   -0.1054    1.5932 O   0  0  0  0  0  0  0  0  0  0  0  0
   -0.0749    0.2090    0.2059 P   0  0  0  0  0  0  0  0  0  0  0  0
    0.5665   -1.0866   -0.5010 O   0  0  0  0  0  0  0  0  0  0  0  0
   -1.1997    0.6958   -0.8395 O   0  0  0  0  0  0  0  0  0  0  0  0
   -1.5970    2.0133   -0.7651 C   0  0  0  0  0  0  0  0  0  0  0  0
   -2.9097    2.2615   -0.3297 C   0  0  0  0  0  0  0  0  0  0  0  0
   -3.8406    1.1822    0.0226 C   0  0  0  0  0  0  0  0  0  0  0  0
   -3.7939    0.5685    1.2797 C   0  0  0  0  0  0  0  0  0  0  0  0
   -4.6845   -0.4596    1.6090 C   0  0  0  0  0  0  0  0  0  0  0  0
   -5.6537   -0.9013    0.6954 C   0  0  0  0  0  0  0  0  0  0  0  0
   -6.5873   -1.9862    1.0428 C   0  0  0  0  0  0  0  0  0  0  0  0
   -7.3338   -1.9447    2.2290 C   0  0  0  0  0  0  0  0  0  0  0  0
   -8.2184   -2.9748    2.5619 C   0  0  0  0  0  0  0  0  0  0  0  0
   -8.3835   -4.0787    1.7145 C   0  0  0  0  0  0  0  0  0  0  0  0
   -9.2683   -5.1214    2.0337 C   0  0  0  0  0  0  0  0  0  0  0  0
   -9.4203   -6.2138    1.1786 C   0  0  0  0  0  0  0  0  0  0  0  0
   -8.6906   -6.2769   -0.0046 C   0  0  0  0  0  0  0  0  0  0  0  0
   -7.8071   -5.2481   -0.3353 C   0  0  0  0  0  0  0  0  0  0  0  0
   -7.6426   -4.1417    0.5142 C   0  0  0  0  0  0  0  0  0  0  0  0
   -6.7562   -3.0965    0.1968 C   0  0  0  0  0  0  0  0  0  0  0  0
   -5.7012   -0.2773   -0.5606 C   0  0  0  0  0  0  0  0  0  0  0  0
   -4.8082    0.7478   -0.8928 C   0  0  0  0  0  0  0  0  0  0  0  0
   -3.3345    3.5887   -0.2530 C   0  0  0  0  0  0  0  0  0  0  0  0
   -2.4784    4.6474   -0.5684 C   0  0  0  0  0  0  0  0  0  0  0  0
   -1.1572    4.3864   -1.0206 C   0  0  0  0  0  0  0  0  0  0  0  0
   -0.3317    5.5202   -1.2326 C   0  0  0  0  0  0  0  0  0  0  0  0
   -0.7962    6.8286   -1.0732 C   0  0  0  0  0  0  0  0  0  0  0  0
   -2.1044    7.0521   -0.6759 C   0  0  0  0  0  0  0  0  0  0  0  0
   -2.9373    5.9671   -0.4188 C   0  0  0  0  0  0  0  0  0  0  0  0
   -0.7037    3.0283   -1.1926 C   0  0  0  0  0  0  0  0  0  0  0  0
    0.5691    2.6707   -1.7882 C   0  0  0  0  0  0  0  0  0  0  0  0
    1.4638    1.8107   -1.1030 C   0  0  0  0  0  0  0  0  0  0  0  0
    1.1050    1.3017    0.1257 O   0  0  0  0  0  0  0  0  0  0  0  0
    2.7507    1.4828   -1.5674 C   0  0  0  0  0  0  0  0  0  0  0  0
    3.6543    0.5931   -0.8211 C   0  0  0  0  0  0  0  0  0  0  0  0
    3.9866   -0.6725   -1.3251 C   0  0  0  0  0  0  0  0  0  0  0  0
    4.8364   -1.5282   -0.6161 C   0  0  0  0  0  0  0  0  0  0  0  0
    5.3842   -1.1440    0.6167 C   0  0  0  0  0  0  0  0  0  0  0  0
    6.2722   -2.0474    1.3634 C   0  0  0  0  0  0  0  0  0  0  0  0
    7.5716   -1.6521    1.7253 C   0  0  0  0  0  0  0  0  0  0  0  0
    8.4335   -2.5081    2.4357 C   0  0  0  0  0  0  0  0  0  0  0  0
    9.7349   -2.1134    2.7905 C   0  0  0  0  0  0  0  0  0  0  0  0
   10.5757   -2.9757    3.4958 C   0  0  0  0  0  0  0  0  0  0  0  0
   10.1279   -4.2431    3.8556 C   0  0  0  0  0  0  0  0  0  0  0  0
    8.8389   -4.6515    3.5100 C   0  0  0  0  0  0  0  0  0  0  0  0
    7.9815   -3.7958    2.7997 C   0  0  0  0  0  0  0  0  0  0  0  0
    6.6852   -4.1922    2.4425 C   0  0  0  0  0  0  0  0  0  0  0  0
    5.8449   -3.3301    1.7328 C   0  0  0  0  0  0  0  0  0  0  0  0
    5.0545    0.1243    1.1168 C   0  0  0  0  0  0  0  0  0  0  0  0
    4.2020    0.9797    0.4093 C   0  0  0  0  0  0  0  0  0  0  0  0
    3.1586    2.0183   -2.7898 C   0  0  0  0  0  0  0  0  0  0  0  0
    2.3099    2.8245   -3.5531 C   0  0  0  0  0  0  0  0  0  0  0  0
    1.0069    3.1391   -3.0811 C   0  0  0  0  0  0  0  0  0  0  0  0
    0.1817    3.8725   -3.9721 C   0  0  0  0  0  0  0  0  0  0  0  0
    0.6323    4.3293   -5.2137 C   0  0  0  0  0  0  0  0  0  0  0  0
    1.9260    4.0510   -5.6224 C   0  0  0  0  0  0  0  0  0  0  0  0
    2.7561    3.2962   -4.7995 C   0  0  0  0  0  0  0  0  0  0  0  0
    1.0816   -1.5983    0.1493 H   0  0  0  0  0  0  0  0  0  0  0  0
   -3.0510    0.8765    2.0136 H   0  0  0  0  0  0  0  0  0  0  0  0
   -4.6000   -0.9272    2.5882 H   0  0  0  0  0  0  0  0  0  0  0  0
   -7.2395   -1.0973    2.9052 H   0  0  0  0  0  0  0  0  0  0  0  0
   -8.7797   -2.9045    3.4907 H   0  0  0  0  0  0  0  0  0  0  0  0
   -9.8470   -5.0894    2.9540 H   0  0  0  0  0  0  0  0  0  0  0  0
  -10.1084   -7.0140    1.4373 H   0  0  0  0  0  0  0  0  0  0  0  0
   -8.8079   -7.1265   -0.6721 H   0  0  0  0  0  0  0  0  0  0  0  0
   -7.2488   -5.3172   -1.2661 H   0  0  0  0  0  0  0  0  0  0  0  0
   -6.1748   -3.1554   -0.7220 H   0  0  0  0  0  0  0  0  0  0  0  0
   -6.4440   -0.5809   -1.2954 H   0  0  0  0  0  0  0  0  0  0  0  0
   -4.8703    1.2035   -1.8788 H   0  0  0  0  0  0  0  0  0  0  0  0
   -4.3493    3.7946    0.0871 H   0  0  0  0  0  0  0  0  0  0  0  0
    0.7112    5.3977   -1.5198 H   0  0  0  0  0  0  0  0  0  0  0  0
   -0.1283    7.6663   -1.2561 H   0  0  0  0  0  0  0  0  0  0  0  0
   -2.4735    8.0661   -0.5492 H   0  0  0  0  0  0  0  0  0  0  0  0
   -3.9546    6.1627   -0.0842 H   0  0  0  0  0  0  0  0  0  0  0  0
    3.5748   -1.0064   -2.2759 H   0  0  0  0  0  0  0  0  0  0  0  0
    5.0781   -2.5003   -1.0422 H   0  0  0  0  0  0  0  0  0  0  0  0
    7.9231   -0.6626    1.4370 H   0  0  0  0  0  0  0  0  0  0  0  0
   10.1035   -1.1269    2.5183 H   0  0  0  0  0  0  0  0  0  0  0  0
   11.5795   -2.6564    3.7631 H   0  0  0  0  0  0  0  0  0  0  0  0
   10.7812   -4.9156    4.4049 H   0  0  0  0  0  0  0  0  0  0  0  0
    8.5073   -5.6461    3.7992 H   0  0  0  0  0  0  0  0  0  0  0  0
    6.3146   -5.1776    2.7149 H   0  0  0  0  0  0  0  0  0  0  0  0
    4.8422   -3.6678    1.4791 H   0  0  0  0  0  0  0  0  0  0  0  0
    5.4503    0.4549    2.0752 H   0  0  0  0  0  0  0  0  0  0  0  0
    3.9635    1.9546    0.8307 H   0  0  0  0  0  0  0  0  0  0  0  0
    4.1555    1.7807   -3.1605 H   0  0  0  0  0  0  0  0  0  0  0  0
   -0.8524    4.0930   -3.7133 H   0  0  0  0  0  0  0  0  0  0  0  0
   -0.0360    4.8958   -5.8569 H   0  0  0  0  0  0  0  0  0  0  0  0
    2.2840    4.4020   -6.5862 H   0  0  0  0  0  0  0  0  0  0  0  0
    3.7603    3.0643   -5.1502 H   0  0  0  0  0  0  0  0  0  0  0  0
  2  1  2  0  0  0  0
  3 58  1  0  0  0  0
  3  2  1  0  0  0  0
  4  5  1  0  0  0  0
  4  2  1  0  0  0  0
  5  6  2  0  0  0  0
  6 23  1  0  0  0  0
  6  7  1  0  0  0  0
  7  8  2  0  0  0  0
  8  9  1  0  0  0  0
  8 59  1  0  0  0  0
  9 60  1  0  0  0  0
 10 11  1  0  0  0  0
 10  9  2  0  0  0  0
 11 12  2  0  0  0  0
 12 13  1  0  0  0  0
 12 61  1  0  0  0  0
 13 62  1  0  0  0  0
 14 15  1  0  0  0  0
 14 13  2  0  0  0  0
 15 63  1  0  0  0  0
 16 64  1  0  0  0  0
 16 15  2  0  0  0  0
 17 16  1  0  0  0  0
 18 17  2  0  0  0  0
 18 19  1  0  0  0  0
 19 14  1  0  0  0  0
 20 19  2  0  0  0  0
 20 11  1  0  0  0  0
 21 10  1  0  0  0  0
 22 21  2  0  0  0  0
 22  7  1  0  0  0  0
 23 70  1  0  0  0  0
 24 29  1  0  0  0  0
 24 23  2  0  0  0  0
 25 24  1  0  0  0  0
 26 27  2  0  0  0  0
 26 25  1  0  0  0  0
 27 28  1  0  0  0  0
 28 73  1  0  0  0  0
 28 29  2  0  0  0  0
 29 74  1  0  0  0  0
 30 25  2  0  0  0  0
 30  5  1  0  0  0  0
 31 30  1  0  0  0  0
 31 32  2  0  0  0  0
 32 33  1  0  0  0  0
 33  2  1  0  0  0  0
 34 32  1  0  0  0  0
 34 35  1  0  0  0  0
 35 50  1  0  0  0  0
 36 35  2  0  0  0  0
 36 37  1  0  0  0  0
 37 38  2  0  0  0  0
 38 49  1  0  0  0  0
 38 39  1  0  0  0  0
 39 40  2  0  0  0  0
 39 48  1  0  0  0  0
 40 41  1  0  0  0  0
 41 42  2  0  0  0  0
 41 46  1  0  0  0  0
 42 43  1  0  0  0  0
 43 79  1  0  0  0  0
 43 44  2  0  0  0  0
 44 80  1  0  0  0  0
 45 81  1  0  0  0  0
 45 44  1  0  0  0  0
 46 45  2  0  0  0  0
 47 82  1  0  0  0  0
 47 46  1  0  0  0  0
 48 47  2  0  0  0  0
 49 84  1  0  0  0  0
 50 85  1  0  0  0  0
 50 49  2  0  0  0  0
 51 34  2  0  0  0  0
 52 53  1  0  0  0  0
 52 51  1  0  0  0  0
 53 31  1  0  0  0  0
 54 87  1  0  0  0  0
 54 53  2  0  0  0  0
 55 54  1  0  0  0  0
 56 55  2  0  0  0  0
 56 57  1  0  0  0  0
 57 52  2  0  0  0  0
 65 17  1  0  0  0  0
 66 18  1  0  0  0  0
 67 20  1  0  0  0  0
 68 21  1  0  0  0  0
 69 22  1  0  0  0  0
 71 26  1  0  0  0  0
 72 27  1  0  0  0  0
 75 36  1  0  0  0  0
 76 37  1  0  0  0  0
 77 40  1  0  0  0  0
 78 42  1  0  0  0  0
 83 48  1  0  0  0  0
 86 51  1  0  0  0  0
 88 55  1  0  0  0  0
 89 56  1  0  0  0  0
 90 57  1  0  0  0  0
M  END
$$$$
