O=P1(O)OC2=C(CC3=C(C=CC=C4)C4=CC5=C3C=CC=C5)C=C6C(C=CC=C6)=C2C7=C(O1)C(CC8=C(C=CC=C9)C9=CC%10=C8C=CC=C%10)=CC%11=C7C=CC=C%11
 OpenBabel09032010373D

 88 98  0  0  0  0  0  0  0  0999 V2000
    1.2052    3.5709   -0.8319 O   0  0  0  0  0  0  0  0  0  0  0  0
    0.6583    2.1823   -0.6969 P   0  0  0  0  0  0  0  0  0  0  0  0
    0.0481    1.6262   -2.0774 O   0  0  0  0  0  0  0  0  0  0  0  0
   -0.5571    2.0441    0.3517 O   0  0  0  0  0  0  0  0  0  0  0  0
   -0.9192    0.8134    0.8507 C   0  0  0  0  0  0  0  0  0  0  0  0
   -2.2424    0.4103    0.5869 C   0  0  0  0  0  0  0  0  0  0  0  0
   -3.1595    1.2980   -0.2396 C   0  0  0  0  0  0  0  0  0  0  0  0
   -4.3971    0.6372   -0.8485 C   0  0  0  0  0  0  0  0  0  0  0  0
   -5.6734    0.7640   -0.2038 C   0  0  0  0  0  0  0  0  0  0  0  0
   -5.8938    1.4275    1.0308 C   0  0  0  0  0  0  0  0  0  0  0  0
   -7.1634    1.5299    1.6077 C   0  0  0  0  0  0  0  0  0  0  0  0
   -8.2579    0.9664    0.9722 C   0  0  0  0  0  0  0  0  0  0  0  0
   -8.0774    0.2949   -0.2335 C   0  0  0  0  0  0  0  0  0  0  0  0
   -6.8049    0.1828   -0.8214 C   0  0  0  0  0  0  0  0  0  0  0  0
   -6.6637   -0.5170   -2.0245 C   0  0  0  0  0  0  0  0  0  0  0  0
   -5.4203   -0.6830   -2.6433 C   0  0  0  0  0  0  0  0  0  0  0  0
   -4.2639   -0.1149   -2.0638 C   0  0  0  0  0  0  0  0  0  0  0  0
   -3.0363   -0.3409   -2.7367 C   0  0  0  0  0  0  0  0  0  0  0  0
   -2.9587   -1.0775   -3.9218 C   0  0  0  0  0  0  0  0  0  0  0  0
   -4.1095   -1.6153   -4.4755 C   0  0  0  0  0  0  0  0  0  0  0  0
   -5.3316   -1.4194   -3.8381 C   0  0  0  0  0  0  0  0  0  0  0  0
   -2.6839   -0.7857    1.1543 C   0  0  0  0  0  0  0  0  0  0  0  0
   -1.8279   -1.5979    1.9029 C   0  0  0  0  0  0  0  0  0  0  0  0
   -0.4900   -1.1918    2.1495 C   0  0  0  0  0  0  0  0  0  0  0  0
    0.3308   -2.1315    2.8267 C   0  0  0  0  0  0  0  0  0  0  0  0
   -0.1505   -3.3580    3.2937 C   0  0  0  0  0  0  0  0  0  0  0  0
   -1.4761   -3.7007    3.0856 C   0  0  0  0  0  0  0  0  0  0  0  0
   -2.3063   -2.8278    2.3883 C   0  0  0  0  0  0  0  0  0  0  0  0
   -0.0193    0.0872    1.6776 C   0  0  0  0  0  0  0  0  0  0  0  0
    1.2886    0.6208    2.0173 C   0  0  0  0  0  0  0  0  0  0  0  0
    2.1766    1.0205    0.9897 C   0  0  0  0  0  0  0  0  0  0  0  0
    1.7151    1.0370   -0.3001 O   0  0  0  0  0  0  0  0  0  0  0  0
    3.5262    1.3461    1.2009 C   0  0  0  0  0  0  0  0  0  0  0  0
    4.4981    1.6839    0.0776 C   0  0  0  0  0  0  0  0  0  0  0  0
    4.5144    0.7132   -1.1071 C   0  0  0  0  0  0  0  0  0  0  0  0
    5.0104   -0.6226   -0.9145 C   0  0  0  0  0  0  0  0  0  0  0  0
    5.6136   -1.0941    0.2794 C   0  0  0  0  0  0  0  0  0  0  0  0
    6.0736   -2.4067    0.4194 C   0  0  0  0  0  0  0  0  0  0  0  0
    5.9539   -3.2953   -0.6363 C   0  0  0  0  0  0  0  0  0  0  0  0
    5.3720   -2.8684   -1.8262 C   0  0  0  0  0  0  0  0  0  0  0  0
    4.9013   -1.5508   -1.9748 C   0  0  0  0  0  0  0  0  0  0  0  0
    4.3112   -1.1636   -3.1814 C   0  0  0  0  0  0  0  0  0  0  0  0
    3.8497    0.1399   -3.3951 C   0  0  0  0  0  0  0  0  0  0  0  0
    3.9804    1.1151   -2.3805 C   0  0  0  0  0  0  0  0  0  0  0  0
    3.5486    2.4274   -2.7109 C   0  0  0  0  0  0  0  0  0  0  0  0
    2.9701    2.7433   -3.9435 C   0  0  0  0  0  0  0  0  0  0  0  0
    2.8028    1.7539   -4.8952 C   0  0  0  0  0  0  0  0  0  0  0  0
    3.2498    0.4642   -4.6246 C   0  0  0  0  0  0  0  0  0  0  0  0
    3.9805    1.4026    2.5210 C   0  0  0  0  0  0  0  0  0  0  0  0
    3.1339    1.1237    3.5981 C   0  0  0  0  0  0  0  0  0  0  0  0
    1.7859    0.7426    3.3653 C   0  0  0  0  0  0  0  0  0  0  0  0
    0.9802    0.5508    4.5168 C   0  0  0  0  0  0  0  0  0  0  0  0
    1.4832    0.6678    5.8152 C   0  0  0  0  0  0  0  0  0  0  0  0
    2.8134    1.0013    6.0108 C   0  0  0  0  0  0  0  0  0  0  0  0
    3.6309    1.2338    4.9083 C   0  0  0  0  0  0  0  0  0  0  0  0
    0.6895    1.7537   -2.8039 H   0  0  0  0  0  0  0  0  0  0  0  0
   -2.5950    1.7496   -1.0653 H   0  0  0  0  0  0  0  0  0  0  0  0
   -3.4385    2.1630    0.3710 H   0  0  0  0  0  0  0  0  0  0  0  0
   -5.0716    1.8727    1.5843 H   0  0  0  0  0  0  0  0  0  0  0  0
   -7.2877    2.0484    2.5549 H   0  0  0  0  0  0  0  0  0  0  0  0
   -9.2479    1.0420    1.4132 H   0  0  0  0  0  0  0  0  0  0  0  0
   -8.9472   -0.1486   -0.7148 H   0  0  0  0  0  0  0  0  0  0  0  0
   -7.5464   -0.9581   -2.4863 H   0  0  0  0  0  0  0  0  0  0  0  0
   -2.1026    0.0487   -2.3392 H   0  0  0  0  0  0  0  0  0  0  0  0
   -1.9962   -1.2285   -4.4027 H   0  0  0  0  0  0  0  0  0  0  0  0
   -4.0591   -2.1892   -5.3965 H   0  0  0  0  0  0  0  0  0  0  0  0
   -6.2242   -1.8544   -4.2832 H   0  0  0  0  0  0  0  0  0  0  0  0
   -3.7083   -1.1165    0.9885 H   0  0  0  0  0  0  0  0  0  0  0  0
    1.3871   -1.9242    2.9887 H   0  0  0  0  0  0  0  0  0  0  0  0
    0.5192   -4.0405    3.8099 H   0  0  0  0  0  0  0  0  0  0  0  0
   -1.8611   -4.6514    3.4441 H   0  0  0  0  0  0  0  0  0  0  0  0
   -3.3388   -3.1252    2.2087 H   0  0  0  0  0  0  0  0  0  0  0  0
    5.5250    1.7332    0.4653 H   0  0  0  0  0  0  0  0  0  0  0  0
    4.2893    2.7141   -0.2173 H   0  0  0  0  0  0  0  0  0  0  0  0
    5.7436   -0.4388    1.1349 H   0  0  0  0  0  0  0  0  0  0  0  0
    6.5235   -2.7269    1.3553 H   0  0  0  0  0  0  0  0  0  0  0  0
    6.3114   -4.3166   -0.5380 H   0  0  0  0  0  0  0  0  0  0  0  0
    5.2886   -3.5810   -2.6452 H   0  0  0  0  0  0  0  0  0  0  0  0
    4.2195   -1.8985   -3.9815 H   0  0  0  0  0  0  0  0  0  0  0  0
    3.6452    3.2502   -2.0074 H   0  0  0  0  0  0  0  0  0  0  0  0
    2.6497    3.7632   -4.1447 H   0  0  0  0  0  0  0  0  0  0  0  0
    2.3408    1.9834   -5.8506 H   0  0  0  0  0  0  0  0  0  0  0  0
    3.1242   -0.2987   -5.3899 H   0  0  0  0  0  0  0  0  0  0  0  0
    5.0142    1.6869    2.7144 H   0  0  0  0  0  0  0  0  0  0  0  0
   -0.0777    0.3143    4.4148 H   0  0  0  0  0  0  0  0  0  0  0  0
    0.8282    0.5025    6.6665 H   0  0  0  0  0  0  0  0  0  0  0  0
    3.2123    1.0958    7.0170 H   0  0  0  0  0  0  0  0  0  0  0  0
    4.6677    1.5152    5.0836 H   0  0  0  0  0  0  0  0  0  0  0  0
  1  2  2  0  0  0  0
  2 32  1  0  0  0  0
  2  4  1  0  0  0  0
  3  2  1  0  0  0  0
  4  5  1  0  0  0  0
  5 29  1  0  0  0  0
  6  5  2  0  0  0  0
  6 22  1  0  0  0  0
  7 58  1  0  0  0  0
  7  6  1  0  0  0  0
  8  7  1  0  0  0  0
  8  9  2  0  0  0  0
  9 10  1  0  0  0  0
 10 59  1  0  0  0  0
 10 11  2  0  0  0  0
 11 60  1  0  0  0  0
 12 61  1  0  0  0  0
 12 11  1  0  0  0  0
 13 12  2  0  0  0  0
 14 13  1  0  0  0  0
 14  9  1  0  0  0  0
 15 14  2  0  0  0  0
 16 17  1  0  0  0  0
 16 15  1  0  0  0  0
 17  8  1  0  0  0  0
 18 64  1  0  0  0  0
 18 17  2  0  0  0  0
 19 18  1  0  0  0  0
 20 19  2  0  0  0  0
 20 21  1  0  0  0  0
 21 16  2  0  0  0  0
 22 23  2  0  0  0  0
 23 24  1  0  0  0  0
 23 28  1  0  0  0  0
 24 25  1  0  0  0  0
 25 69  1  0  0  0  0
 25 26  2  0  0  0  0
 26 70  1  0  0  0  0
 27 26  1  0  0  0  0
 27 71  1  0  0  0  0
 28 27  2  0  0  0  0
 29 30  1  0  0  0  0
 29 24  2  0  0  0  0
 30 51  2  0  0  0  0
 31 33  2  0  0  0  0
 31 30  1  0  0  0  0
 32 31  1  0  0  0  0
 33 49  1  0  0  0  0
 34 73  1  0  0  0  0
 34 33  1  0  0  0  0
 35 36  1  0  0  0  0
 35 34  1  0  0  0  0
 36 37  2  0  0  0  0
 37 38  1  0  0  0  0
 37 75  1  0  0  0  0
 38 76  1  0  0  0  0
 39 77  1  0  0  0  0
 39 38  2  0  0  0  0
 40 39  1  0  0  0  0
 41 40  2  0  0  0  0
 41 36  1  0  0  0  0
 42 41  1  0  0  0  0
 43 42  2  0  0  0  0
 43 44  1  0  0  0  0
 44 35  2  0  0  0  0
 45 44  1  0  0  0  0
 45 80  1  0  0  0  0
 46 45  2  0  0  0  0
 47 48  2  0  0  0  0
 47 46  1  0  0  0  0
 48 43  1  0  0  0  0
 49 84  1  0  0  0  0
 49 50  2  0  0  0  0
 50 55  1  0  0  0  0
 51 50  1  0  0  0  0
 51 52  1  0  0  0  0
 52 53  2  0  0  0  0
 53 54  1  0  0  0  0
 53 86  1  0  0  0  0
 54 87  1  0  0  0  0
 55 88  1  0  0  0  0
 55 54  2  0  0  0  0
 56  3  1  0  0  0  0
 57  7  1  0  0  0  0
 62 13  1  0  0  0  0
 63 15  1  0  0  0  0
 65 19  1  0  0  0  0
 66 20  1  0  0  0  0
 67 21  1  0  0  0  0
 68 22  1  0  0  0  0
 72 28  1  0  0  0  0
 74 34  1  0  0  0  0
 78 40  1  0  0  0  0
 79 42  1  0  0  0  0
 81 46  1  0  0  0  0
 82 47  1  0  0  0  0
 83 48  1  0  0  0  0
 85 52  1  0  0  0  0
M  END
$$$$
