O=P1(O)OC2=C(C3=C(C4=CC(C=CC=C5)=C5C=C4)C=CC=C3)C=C6C(CCCC6)=C2C7=C(O1)C(C8=CC=CC=C8C9=CC=C(C=CC=C%10)C%10=C9)=CC%11=C7CCCC%11
 OpenBabel09032010383D

 98108  0  0  0  0  0  0  0  0999 V2000
    0.8993   -1.0065    3.5560 O   0  0  0  0  0  0  0  0  0  0  0  0
    0.6310    0.3402    2.9605 P   0  0  0  0  0  0  0  0  0  0  0  0
    0.3059    1.4018    4.1286 O   0  0  0  0  0  0  0  0  0  0  0  0
    1.8436    1.0341    2.1613 O   0  0  0  0  0  0  0  0  0  0  0  0
    2.0396    0.6621    0.8499 C   0  0  0  0  0  0  0  0  0  0  0  0
    3.2157   -0.0491    0.5431 C   0  0  0  0  0  0  0  0  0  0  0  0
    4.2276   -0.4029    1.5664 C   0  0  0  0  0  0  0  0  0  0  0  0
    4.5677   -1.7461    1.8815 C   0  0  0  0  0  0  0  0  0  0  0  0
    3.9181   -2.9009    1.2387 C   0  0  0  0  0  0  0  0  0  0  0  0
    4.5664   -3.6107    0.2148 C   0  0  0  0  0  0  0  0  0  0  0  0
    3.9392   -4.6827   -0.4420 C   0  0  0  0  0  0  0  0  0  0  0  0
    4.5743   -5.3763   -1.4837 C   0  0  0  0  0  0  0  0  0  0  0  0
    3.9295   -6.4298   -2.1331 C   0  0  0  0  0  0  0  0  0  0  0  0
    2.6457   -6.8054   -1.7484 C   0  0  0  0  0  0  0  0  0  0  0  0
    2.0030   -6.1302   -0.7115 C   0  0  0  0  0  0  0  0  0  0  0  0
    2.6367   -5.0672   -0.0508 C   0  0  0  0  0  0  0  0  0  0  0  0
    2.0022   -4.3786    0.9905 C   0  0  0  0  0  0  0  0  0  0  0  0
    2.6380   -3.3111    1.6269 C   0  0  0  0  0  0  0  0  0  0  0  0
    5.5587   -1.9926    2.8526 C   0  0  0  0  0  0  0  0  0  0  0  0
    6.2066   -0.9459    3.5077 C   0  0  0  0  0  0  0  0  0  0  0  0
    5.8763    0.3685    3.2032 C   0  0  0  0  0  0  0  0  0  0  0  0
    4.9003    0.6355    2.2425 C   0  0  0  0  0  0  0  0  0  0  0  0
    3.4159   -0.4122   -0.7920 C   0  0  0  0  0  0  0  0  0  0  0  0
    2.4535   -0.1575   -1.7773 C   0  0  0  0  0  0  0  0  0  0  0  0
    1.2732    0.5425   -1.4394 C   0  0  0  0  0  0  0  0  0  0  0  0
    0.1745    0.6865   -2.4842 C   0  0  0  0  0  0  0  0  0  0  0  0
    0.2909   -0.2998   -3.6447 C   0  0  0  0  0  0  0  0  0  0  0  0
    1.7020   -0.2631   -4.2074 C   0  0  0  0  0  0  0  0  0  0  0  0
    2.6943   -0.7368   -3.1528 C   0  0  0  0  0  0  0  0  0  0  0  0
    1.0825    1.0581   -0.1190 C   0  0  0  0  0  0  0  0  0  0  0  0
   -0.0207    1.9139    0.2392 C   0  0  0  0  0  0  0  0  0  0  0  0
   -0.9049    1.5583    1.2863 C   0  0  0  0  0  0  0  0  0  0  0  0
   -0.6680    0.4136    2.0139 O   0  0  0  0  0  0  0  0  0  0  0  0
   -2.0743    2.2796    1.6046 C   0  0  0  0  0  0  0  0  0  0  0  0
   -3.0015    1.8341    2.6602 C   0  0  0  0  0  0  0  0  0  0  0  0
   -2.8499    2.3528    3.9607 C   0  0  0  0  0  0  0  0  0  0  0  0
   -3.6935    1.9564    4.9981 C   0  0  0  0  0  0  0  0  0  0  0  0
   -4.7069    1.0369    4.7522 C   0  0  0  0  0  0  0  0  0  0  0  0
   -4.8810    0.5192    3.4681 C   0  0  0  0  0  0  0  0  0  0  0  0
   -4.0416    0.9066    2.4068 C   0  0  0  0  0  0  0  0  0  0  0  0
   -4.2863    0.3482    1.0678 C   0  0  0  0  0  0  0  0  0  0  0  0
   -3.5821   -0.7740    0.6157 C   0  0  0  0  0  0  0  0  0  0  0  0
   -3.8093   -1.2935   -0.6612 C   0  0  0  0  0  0  0  0  0  0  0  0
   -4.7559   -0.7079   -1.5143 C   0  0  0  0  0  0  0  0  0  0  0  0
   -4.9991   -1.2195   -2.7991 C   0  0  0  0  0  0  0  0  0  0  0  0
   -5.9485   -0.6285   -3.6344 C   0  0  0  0  0  0  0  0  0  0  0  0
   -6.6650    0.4815   -3.1968 C   0  0  0  0  0  0  0  0  0  0  0  0
   -6.4331    1.0035   -1.9233 C   0  0  0  0  0  0  0  0  0  0  0  0
   -5.4817    0.4200   -1.0702 C   0  0  0  0  0  0  0  0  0  0  0  0
   -5.2360    0.9331    0.2150 C   0  0  0  0  0  0  0  0  0  0  0  0
   -2.3458    3.4489    0.8929 C   0  0  0  0  0  0  0  0  0  0  0  0
   -1.4709    3.8933   -0.0983 C   0  0  0  0  0  0  0  0  0  0  0  0
   -0.3061    3.1509   -0.4123 C   0  0  0  0  0  0  0  0  0  0  0  0
    0.7049    3.8649   -1.2963 C   0  0  0  0  0  0  0  0  0  0  0  0
    0.0868    4.6062   -2.4881 C   0  0  0  0  0  0  0  0  0  0  0  0
   -1.3526    5.0762   -2.2764 C   0  0  0  0  0  0  0  0  0  0  0  0
   -1.7250    5.2022   -0.8044 C   0  0  0  0  0  0  0  0  0  0  0  0
   -0.1551    0.9416    4.8533 H   0  0  0  0  0  0  0  0  0  0  0  0
    5.5665   -3.3045   -0.0867 H   0  0  0  0  0  0  0  0  0  0  0  0
    5.5785   -5.1020   -1.8003 H   0  0  0  0  0  0  0  0  0  0  0  0
    4.4318   -6.9579   -2.9393 H   0  0  0  0  0  0  0  0  0  0  0  0
    2.1442   -7.6262   -2.2539 H   0  0  0  0  0  0  0  0  0  0  0  0
    1.0007   -6.4379   -0.4226 H   0  0  0  0  0  0  0  0  0  0  0  0
    1.0046   -4.6624    1.3167 H   0  0  0  0  0  0  0  0  0  0  0  0
    2.1226   -2.7967    2.4337 H   0  0  0  0  0  0  0  0  0  0  0  0
    5.8209   -3.0179    3.1087 H   0  0  0  0  0  0  0  0  0  0  0  0
    6.9637   -1.1600    4.2572 H   0  0  0  0  0  0  0  0  0  0  0  0
    6.3737    1.1896    3.7120 H   0  0  0  0  0  0  0  0  0  0  0  0
    4.6579    1.6727    2.0164 H   0  0  0  0  0  0  0  0  0  0  0  0
    4.3231   -0.9481   -1.0679 H   0  0  0  0  0  0  0  0  0  0  0  0
    0.2066    1.6968   -2.8979 H   0  0  0  0  0  0  0  0  0  0  0  0
   -0.8074    0.5391   -2.0193 H   0  0  0  0  0  0  0  0  0  0  0  0
    0.0481   -1.3147   -3.3057 H   0  0  0  0  0  0  0  0  0  0  0  0
   -0.4335   -0.0371   -4.4238 H   0  0  0  0  0  0  0  0  0  0  0  0
    1.7758   -0.8988   -5.0968 H   0  0  0  0  0  0  0  0  0  0  0  0
    1.9485    0.7590   -4.5219 H   0  0  0  0  0  0  0  0  0  0  0  0
    2.6308   -1.8299   -3.0717 H   0  0  0  0  0  0  0  0  0  0  0  0
    3.7094   -0.4894   -3.4860 H   0  0  0  0  0  0  0  0  0  0  0  0
   -2.0600    3.0745    4.1652 H   0  0  0  0  0  0  0  0  0  0  0  0
   -3.5617    2.3695    5.9946 H   0  0  0  0  0  0  0  0  0  0  0  0
   -5.3687    0.7250    5.5562 H   0  0  0  0  0  0  0  0  0  0  0  0
   -5.6838   -0.1946    3.2896 H   0  0  0  0  0  0  0  0  0  0  0  0
   -2.8398   -1.2460    1.2562 H   0  0  0  0  0  0  0  0  0  0  0  0
   -3.2373   -2.1609   -0.9826 H   0  0  0  0  0  0  0  0  0  0  0  0
   -4.4482   -2.0861   -3.1574 H   0  0  0  0  0  0  0  0  0  0  0  0
   -6.1284   -1.0364   -4.6255 H   0  0  0  0  0  0  0  0  0  0  0  0
   -7.4058    0.9416   -3.8456 H   0  0  0  0  0  0  0  0  0  0  0  0
   -7.0034    1.8711   -1.5994 H   0  0  0  0  0  0  0  0  0  0  0  0
   -5.7868    1.8060    0.5606 H   0  0  0  0  0  0  0  0  0  0  0  0
   -3.2384    4.0255    1.1281 H   0  0  0  0  0  0  0  0  0  0  0  0
    1.4968    3.2085   -1.6646 H   0  0  0  0  0  0  0  0  0  0  0  0
    1.2149    4.5975   -0.6549 H   0  0  0  0  0  0  0  0  0  0  0  0
    0.7240    5.4664   -2.7288 H   0  0  0  0  0  0  0  0  0  0  0  0
    0.1123    3.9660   -3.3783 H   0  0  0  0  0  0  0  0  0  0  0  0
   -2.0284    4.3534   -2.7536 H   0  0  0  0  0  0  0  0  0  0  0  0
   -1.5117    6.0307   -2.7911 H   0  0  0  0  0  0  0  0  0  0  0  0
   -1.1386    5.9924   -0.3208 H   0  0  0  0  0  0  0  0  0  0  0  0
   -2.7827    5.4804   -0.7288 H   0  0  0  0  0  0  0  0  0  0  0  0
  2  1  2  0  0  0  0
  2  3  1  0  0  0  0
  3 58  1  0  0  0  0
  4  2  1  0  0  0  0
  5  4  1  0  0  0  0
  6  5  1  0  0  0  0
  6  7  1  0  0  0  0
  7  8  2  0  0  0  0
  7 22  1  0  0  0  0
  8 19  1  0  0  0  0
  9 18  1  0  0  0  0
  9  8  1  0  0  0  0
 10  9  2  0  0  0  0
 11 16  1  0  0  0  0
 11 10  1  0  0  0  0
 12 11  2  0  0  0  0
 13 14  2  0  0  0  0
 13 12  1  0  0  0  0
 14 15  1  0  0  0  0
 15 63  1  0  0  0  0
 15 16  2  0  0  0  0
 16 17  1  0  0  0  0
 17 64  1  0  0  0  0
 17 18  2  0  0  0  0
 18 65  1  0  0  0  0
 19 66  1  0  0  0  0
 19 20  2  0  0  0  0
 20 67  1  0  0  0  0
 21 20  1  0  0  0  0
 21 68  1  0  0  0  0
 22 21  2  0  0  0  0
 23  6  2  0  0  0  0
 24 25  2  0  0  0  0
 24 23  1  0  0  0  0
 25 30  1  0  0  0  0
 26 72  1  0  0  0  0
 26 25  1  0  0  0  0
 27 73  1  0  0  0  0
 27 26  1  0  0  0  0
 28 27  1  0  0  0  0
 28 29  1  0  0  0  0
 29 77  1  0  0  0  0
 29 24  1  0  0  0  0
 30 31  1  0  0  0  0
 30  5  2  0  0  0  0
 31 32  2  0  0  0  0
 32 34  1  0  0  0  0
 32 33  1  0  0  0  0
 33  2  1  0  0  0  0
 34 35  1  0  0  0  0
 35 36  1  0  0  0  0
 36 79  1  0  0  0  0
 36 37  2  0  0  0  0
 37 80  1  0  0  0  0
 38 37  1  0  0  0  0
 38 81  1  0  0  0  0
 39 38  2  0  0  0  0
 40 35  2  0  0  0  0
 40 39  1  0  0  0  0
 41 40  1  0  0  0  0
 42 41  1  0  0  0  0
 42 83  1  0  0  0  0
 43 42  2  0  0  0  0
 44 49  1  0  0  0  0
 44 43  1  0  0  0  0
 45 44  2  0  0  0  0
 46 47  2  0  0  0  0
 46 45  1  0  0  0  0
 47 48  1  0  0  0  0
 48 88  1  0  0  0  0
 48 49  2  0  0  0  0
 49 50  1  0  0  0  0
 50 89  1  0  0  0  0
 50 41  2  0  0  0  0
 51 90  1  0  0  0  0
 51 34  2  0  0  0  0
 52 51  1  0  0  0  0
 53 52  2  0  0  0  0
 53 31  1  0  0  0  0
 54 92  1  0  0  0  0
 54 53  1  0  0  0  0
 55 56  1  0  0  0  0
 55 54  1  0  0  0  0
 56 57  1  0  0  0  0
 57 98  1  0  0  0  0
 57 97  1  0  0  0  0
 57 52  1  0  0  0  0
 59 10  1  0  0  0  0
 60 12  1  0  0  0  0
 61 13  1  0  0  0  0
 62 14  1  0  0  0  0
 69 22  1  0  0  0  0
 70 23  1  0  0  0  0
 71 26  1  0  0  0  0
 74 27  1  0  0  0  0
 75 28  1  0  0  0  0
 76 28  1  0  0  0  0
 78 29  1  0  0  0  0
 82 39  1  0  0  0  0
 84 43  1  0  0  0  0
 85 45  1  0  0  0  0
 86 46  1  0  0  0  0
 87 47  1  0  0  0  0
 91 54  1  0  0  0  0
 93 55  1  0  0  0  0
 94 55  1  0  0  0  0
 95 56  1  0  0  0  0
 96 56  1  0  0  0  0
M  END
$$$$
