O=P1(O)OC2=C(CC)C=C3C(CCCC3)=C2C4=C(O1)C(CC)=CC5=C4CCCC5
 OpenBabel09032010373D

 58 62  0  0  0  0  0  0  0  0999 V2000
    1.5337    4.1520    0.7992 O   0  0  0  0  0  0  0  0  0  0  0  0
    0.6896    3.2593   -0.0585 P   0  0  0  0  0  0  0  0  0  0  0  0
    0.0374    4.1204   -1.2530 O   0  0  0  0  0  0  0  0  0  0  0  0
    1.4894    2.0983   -0.8418 O   0  0  0  0  0  0  0  0  0  0  0  0
    1.7781    0.9610   -0.1272 C   0  0  0  0  0  0  0  0  0  0  0  0
    3.1235    0.7046    0.1693 C   0  0  0  0  0  0  0  0  0  0  0  0
    4.2347    1.5999   -0.3206 C   0  0  0  0  0  0  0  0  0  0  0  0
    4.6382    1.2722   -1.7504 C   0  0  0  0  0  0  0  0  0  0  0  0
    3.4274   -0.4238    0.9307 C   0  0  0  0  0  0  0  0  0  0  0  0
    2.4138   -1.2484    1.4380 C   0  0  0  0  0  0  0  0  0  0  0  0
    1.0600   -0.9665    1.1365 C   0  0  0  0  0  0  0  0  0  0  0  0
   -0.0374   -1.7546    1.8401 C   0  0  0  0  0  0  0  0  0  0  0  0
    0.4403   -2.5061    3.0818 C   0  0  0  0  0  0  0  0  0  0  0  0
    1.6864   -3.3085    2.7463 C   0  0  0  0  0  0  0  0  0  0  0  0
    2.8234   -2.3663    2.3701 C   0  0  0  0  0  0  0  0  0  0  0  0
    0.7201    0.1070    0.2541 C   0  0  0  0  0  0  0  0  0  0  0  0
   -0.6123    0.3524   -0.2255 C   0  0  0  0  0  0  0  0  0  0  0  0
   -1.2611    1.5792    0.0491 C   0  0  0  0  0  0  0  0  0  0  0  0
   -0.5765    2.5901    0.6816 O   0  0  0  0  0  0  0  0  0  0  0  0
   -2.6096    1.8189   -0.2540 C   0  0  0  0  0  0  0  0  0  0  0  0
   -3.2979    3.1061    0.1304 C   0  0  0  0  0  0  0  0  0  0  0  0
   -3.7900    3.0779    1.5697 C   0  0  0  0  0  0  0  0  0  0  0  0
   -3.3281    0.8233   -0.9159 C   0  0  0  0  0  0  0  0  0  0  0  0
   -2.7089   -0.3659   -1.3218 C   0  0  0  0  0  0  0  0  0  0  0  0
   -1.3455   -0.5892   -1.0151 C   0  0  0  0  0  0  0  0  0  0  0  0
   -0.6383   -1.7960   -1.6196 C   0  0  0  0  0  0  0  0  0  0  0  0
   -1.3810   -2.4223   -2.7990 C   0  0  0  0  0  0  0  0  0  0  0  0
   -2.8331   -2.6600   -2.4204 C   0  0  0  0  0  0  0  0  0  0  0  0
   -3.5238   -1.3278   -2.1567 C   0  0  0  0  0  0  0  0  0  0  0  0
    0.5356    4.9512   -1.3575 H   0  0  0  0  0  0  0  0  0  0  0  0
    3.9308    2.6506   -0.2474 H   0  0  0  0  0  0  0  0  0  0  0  0
    5.1086    1.4996    0.3351 H   0  0  0  0  0  0  0  0  0  0  0  0
    3.8014    1.4071   -2.4438 H   0  0  0  0  0  0  0  0  0  0  0  0
    4.9818    0.2358   -1.8370 H   0  0  0  0  0  0  0  0  0  0  0  0
    5.4532    1.9280   -2.0728 H   0  0  0  0  0  0  0  0  0  0  0  0
    4.4660   -0.6431    1.1744 H   0  0  0  0  0  0  0  0  0  0  0  0
   -0.8411   -1.0762    2.1500 H   0  0  0  0  0  0  0  0  0  0  0  0
   -0.4650   -2.4874    1.1540 H   0  0  0  0  0  0  0  0  0  0  0  0
   -0.3544   -3.1720    3.4365 H   0  0  0  0  0  0  0  0  0  0  0  0
    0.6560   -1.7996    3.8932 H   0  0  0  0  0  0  0  0  0  0  0  0
    1.9853   -3.9262    3.6004 H   0  0  0  0  0  0  0  0  0  0  0  0
    1.4742   -3.9918    1.9142 H   0  0  0  0  0  0  0  0  0  0  0  0
    3.6310   -2.9508    1.9130 H   0  0  0  0  0  0  0  0  0  0  0  0
    3.2227   -1.9108    3.2856 H   0  0  0  0  0  0  0  0  0  0  0  0
   -2.6207    3.9551   -0.0187 H   0  0  0  0  0  0  0  0  0  0  0  0
   -4.1474    3.2865   -0.5402 H   0  0  0  0  0  0  0  0  0  0  0  0
   -4.2949    4.0177    1.8149 H   0  0  0  0  0  0  0  0  0  0  0  0
   -4.5001    2.2594    1.7294 H   0  0  0  0  0  0  0  0  0  0  0  0
   -2.9617    2.9454    2.2737 H   0  0  0  0  0  0  0  0  0  0  0  0
   -4.3759    0.9906   -1.1608 H   0  0  0  0  0  0  0  0  0  0  0  0
   -0.5117   -2.5694   -0.8605 H   0  0  0  0  0  0  0  0  0  0  0  0
    0.3584   -1.5044   -1.9717 H   0  0  0  0  0  0  0  0  0  0  0  0
   -1.3243   -1.7646   -3.6756 H   0  0  0  0  0  0  0  0  0  0  0  0
   -0.9019   -3.3686   -3.0741 H   0  0  0  0  0  0  0  0  0  0  0  0
   -2.8839   -3.2929   -1.5253 H   0  0  0  0  0  0  0  0  0  0  0  0
   -3.3550   -3.1951   -3.2215 H   0  0  0  0  0  0  0  0  0  0  0  0
   -3.7343   -0.8423   -3.1185 H   0  0  0  0  0  0  0  0  0  0  0  0
   -4.4858   -1.5188   -1.6660 H   0  0  0  0  0  0  0  0  0  0  0  0
  2 19  1  0  0  0  0
  2  1  2  0  0  0  0
  3  2  1  0  0  0  0
  4  5  1  0  0  0  0
  4  2  1  0  0  0  0
  5  6  2  0  0  0  0
  5 16  1  0  0  0  0
  6  9  1  0  0  0  0
  7 31  1  0  0  0  0
  7  6  1  0  0  0  0
  7 32  1  0  0  0  0
  8  7  1  0  0  0  0
  9 36  1  0  0  0  0
  9 10  2  0  0  0  0
 10 15  1  0  0  0  0
 11 10  1  0  0  0  0
 11 12  1  0  0  0  0
 12 37  1  0  0  0  0
 12 13  1  0  0  0  0
 13 39  1  0  0  0  0
 13 40  1  0  0  0  0
 14 13  1  0  0  0  0
 14 41  1  0  0  0  0
 15 14  1  0  0  0  0
 15 44  1  0  0  0  0
 16 11  2  0  0  0  0
 17 18  2  0  0  0  0
 17 16  1  0  0  0  0
 18 19  1  0  0  0  0
 20 18  1  0  0  0  0
 20 21  1  0  0  0  0
 21 22  1  0  0  0  0
 22 48  1  0  0  0  0
 22 47  1  0  0  0  0
 22 49  1  0  0  0  0
 23 20  2  0  0  0  0
 24 25  2  0  0  0  0
 24 23  1  0  0  0  0
 25 17  1  0  0  0  0
 26 25  1  0  0  0  0
 26 51  1  0  0  0  0
 27 28  1  0  0  0  0
 27 26  1  0  0  0  0
 28 29  1  0  0  0  0
 28 55  1  0  0  0  0
 29 58  1  0  0  0  0
 29 24  1  0  0  0  0
 30  3  1  0  0  0  0
 33  8  1  0  0  0  0
 34  8  1  0  0  0  0
 35  8  1  0  0  0  0
 38 12  1  0  0  0  0
 42 14  1  0  0  0  0
 43 15  1  0  0  0  0
 45 21  1  0  0  0  0
 46 21  1  0  0  0  0
 50 23  1  0  0  0  0
 52 26  1  0  0  0  0
 53 27  1  0  0  0  0
 54 27  1  0  0  0  0
 56 28  1  0  0  0  0
 57 29  1  0  0  0  0
M  END
$$$$
