O=P1(O)OC2=C(C3=CC=C(OC)C=C3)C=C4C(C=CC=C4)=C2C5=C(O1)C(C6=CC=C(OC)C=C6)=CC7=C5C=CC=C7
 OpenBabel09032010383D

 66 72  0  0  0  0  0  0  0  0999 V2000
   -0.7598    2.0010   -1.9566 O   0  0  0  0  0  0  0  0  0  0  0  0
   -0.1355    1.4041   -0.7351 P   0  0  0  0  0  0  0  0  0  0  0  0
    0.5467    2.5319    0.1884 O   0  0  0  0  0  0  0  0  0  0  0  0
    1.0717    0.3778   -1.0231 O   0  0  0  0  0  0  0  0  0  0  0  0
    1.5631   -0.3850    0.0147 C   0  0  0  0  0  0  0  0  0  0  0  0
    2.8790   -0.1084    0.4283 C   0  0  0  0  0  0  0  0  0  0  0  0
    3.6778    0.9788   -0.1613 C   0  0  0  0  0  0  0  0  0  0  0  0
    4.0644    0.9489   -1.5076 C   0  0  0  0  0  0  0  0  0  0  0  0
    4.8119    1.9934   -2.0594 C   0  0  0  0  0  0  0  0  0  0  0  0
    5.1922    3.0879   -1.2811 C   0  0  0  0  0  0  0  0  0  0  0  0
    5.9171    4.0382   -1.9446 O   0  0  0  0  0  0  0  0  0  0  0  0
    6.3529    5.1609   -1.1884 C   0  0  0  0  0  0  0  0  0  0  0  0
    4.8159    3.1298    0.0600 C   0  0  0  0  0  0  0  0  0  0  0  0
    4.0661    2.0837    0.6129 C   0  0  0  0  0  0  0  0  0  0  0  0
    3.4192   -0.8955    1.4465 C   0  0  0  0  0  0  0  0  0  0  0  0
    2.6732   -1.9022    2.0666 C   0  0  0  0  0  0  0  0  0  0  0  0
    1.3397   -2.1639    1.6510 C   0  0  0  0  0  0  0  0  0  0  0  0
    0.6279   -3.1299    2.4083 C   0  0  0  0  0  0  0  0  0  0  0  0
    1.2117   -3.8425    3.4592 C   0  0  0  0  0  0  0  0  0  0  0  0
    2.5304   -3.6011    3.8069 C   0  0  0  0  0  0  0  0  0  0  0  0
    3.2531   -2.6311    3.1190 C   0  0  0  0  0  0  0  0  0  0  0  0
    0.7637   -1.4254    0.5536 C   0  0  0  0  0  0  0  0  0  0  0  0
   -0.5523   -1.6904    0.0073 C   0  0  0  0  0  0  0  0  0  0  0  0
   -1.5027   -0.6422   -0.0810 C   0  0  0  0  0  0  0  0  0  0  0  0
   -1.1241    0.6337    0.2774 O   0  0  0  0  0  0  0  0  0  0  0  0
   -2.8380   -0.8239   -0.4778 C   0  0  0  0  0  0  0  0  0  0  0  0
   -3.8090    0.2794   -0.5035 C   0  0  0  0  0  0  0  0  0  0  0  0
   -4.2739    0.8587    0.6866 C   0  0  0  0  0  0  0  0  0  0  0  0
   -5.2064    1.9036    0.6670 C   0  0  0  0  0  0  0  0  0  0  0  0
   -5.6891    2.3887   -0.5474 C   0  0  0  0  0  0  0  0  0  0  0  0
   -6.5971    3.3986   -0.7082 O   0  0  0  0  0  0  0  0  0  0  0  0
   -7.0576    4.0421    0.4731 C   0  0  0  0  0  0  0  0  0  0  0  0
   -5.2308    1.8196   -1.7366 C   0  0  0  0  0  0  0  0  0  0  0  0
   -4.3004    0.7763   -1.7176 C   0  0  0  0  0  0  0  0  0  0  0  0
   -3.2359   -2.1078   -0.8542 C   0  0  0  0  0  0  0  0  0  0  0  0
   -2.3360   -3.1779   -0.8662 C   0  0  0  0  0  0  0  0  0  0  0  0
   -0.9889   -2.9837   -0.4582 C   0  0  0  0  0  0  0  0  0  0  0  0
   -0.1258   -4.1012   -0.5921 C   0  0  0  0  0  0  0  0  0  0  0  0
   -0.5742   -5.3480   -1.0363 C   0  0  0  0  0  0  0  0  0  0  0  0
   -1.9048   -5.5193   -1.3818 C   0  0  0  0  0  0  0  0  0  0  0  0
   -2.7778   -4.4383   -1.3032 C   0  0  0  0  0  0  0  0  0  0  0  0
    0.9930    3.1913   -0.3737 H   0  0  0  0  0  0  0  0  0  0  0  0
    3.7830    0.1090   -2.1400 H   0  0  0  0  0  0  0  0  0  0  0  0
    5.0997    1.9502   -3.1071 H   0  0  0  0  0  0  0  0  0  0  0  0
    5.5012    5.7361   -0.8105 H   0  0  0  0  0  0  0  0  0  0  0  0
    6.9246    5.8124   -1.8563 H   0  0  0  0  0  0  0  0  0  0  0  0
    7.0167    4.8545   -0.3732 H   0  0  0  0  0  0  0  0  0  0  0  0
    5.0852    3.9589    0.7056 H   0  0  0  0  0  0  0  0  0  0  0  0
    3.7732    2.1427    1.6602 H   0  0  0  0  0  0  0  0  0  0  0  0
    4.4409   -0.7027    1.7730 H   0  0  0  0  0  0  0  0  0  0  0  0
   -0.4193   -3.3373    2.1953 H   0  0  0  0  0  0  0  0  0  0  0  0
    0.6272   -4.5792    4.0040 H   0  0  0  0  0  0  0  0  0  0  0  0
    2.9916   -4.1507    4.6228 H   0  0  0  0  0  0  0  0  0  0  0  0
    4.2797   -2.4369    3.4247 H   0  0  0  0  0  0  0  0  0  0  0  0
   -3.9064    0.4963    1.6452 H   0  0  0  0  0  0  0  0  0  0  0  0
   -5.5300    2.3129    1.6177 H   0  0  0  0  0  0  0  0  0  0  0  0
   -7.7545    4.8310    0.1740 H   0  0  0  0  0  0  0  0  0  0  0  0
   -7.6024    3.3430    1.1160 H   0  0  0  0  0  0  0  0  0  0  0  0
   -6.2311    4.5154    1.0136 H   0  0  0  0  0  0  0  0  0  0  0  0
   -5.5932    2.1958   -2.6898 H   0  0  0  0  0  0  0  0  0  0  0  0
   -3.9494    0.3651   -2.6618 H   0  0  0  0  0  0  0  0  0  0  0  0
   -4.2694   -2.2666   -1.1617 H   0  0  0  0  0  0  0  0  0  0  0  0
    0.9340   -4.0116   -0.3598 H   0  0  0  0  0  0  0  0  0  0  0  0
    0.1234   -6.1776   -1.1151 H   0  0  0  0  0  0  0  0  0  0  0  0
   -2.2612   -6.4853   -1.7288 H   0  0  0  0  0  0  0  0  0  0  0  0
   -3.8139   -4.5861   -1.6028 H   0  0  0  0  0  0  0  0  0  0  0  0
  1  2  2  0  0  0  0
  2  3  1  0  0  0  0
  2 25  1  0  0  0  0
  4  2  1  0  0  0  0
  4  5  1  0  0  0  0
  5  6  2  0  0  0  0
  5 22  1  0  0  0  0
  6 15  1  0  0  0  0
  7  6  1  0  0  0  0
  7 14  2  0  0  0  0
  8  7  1  0  0  0  0
  9  8  2  0  0  0  0
  9 10  1  0  0  0  0
 10 13  2  0  0  0  0
 11 10  1  0  0  0  0
 11 12  1  0  0  0  0
 12 45  1  0  0  0  0
 12 47  1  0  0  0  0
 13 14  1  0  0  0  0
 13 48  1  0  0  0  0
 14 49  1  0  0  0  0
 15 50  1  0  0  0  0
 15 16  2  0  0  0  0
 16 21  1  0  0  0  0
 17 16  1  0  0  0  0
 17 18  1  0  0  0  0
 18 19  2  0  0  0  0
 19 20  1  0  0  0  0
 19 52  1  0  0  0  0
 20 53  1  0  0  0  0
 21 54  1  0  0  0  0
 21 20  2  0  0  0  0
 22 17  2  0  0  0  0
 23 22  1  0  0  0  0
 24 23  1  0  0  0  0
 24 25  1  0  0  0  0
 26 24  2  0  0  0  0
 27 26  1  0  0  0  0
 27 28  2  0  0  0  0
 28 55  1  0  0  0  0
 29 28  1  0  0  0  0
 29 56  1  0  0  0  0
 30 29  2  0  0  0  0
 31 30  1  0  0  0  0
 31 32  1  0  0  0  0
 32 59  1  0  0  0  0
 32 58  1  0  0  0  0
 33 34  2  0  0  0  0
 33 30  1  0  0  0  0
 34 27  1  0  0  0  0
 35 26  1  0  0  0  0
 36 35  2  0  0  0  0
 36 37  1  0  0  0  0
 37 23  2  0  0  0  0
 38 37  1  0  0  0  0
 38 63  1  0  0  0  0
 39 38  2  0  0  0  0
 40 41  2  0  0  0  0
 40 39  1  0  0  0  0
 41 36  1  0  0  0  0
 42  3  1  0  0  0  0
 43  8  1  0  0  0  0
 44  9  1  0  0  0  0
 46 12  1  0  0  0  0
 51 18  1  0  0  0  0
 57 32  1  0  0  0  0
 60 33  1  0  0  0  0
 61 34  1  0  0  0  0
 62 35  1  0  0  0  0
 64 39  1  0  0  0  0
 65 40  1  0  0  0  0
 66 41  1  0  0  0  0
M  END
$$$$
