O=P1(O)OC2=C(Br)C=C3C(CCCC3)=C2C4=C(O1)C(Br)=CC5=C4CCCC5
 OpenBabel09032010373D

 46 50  0  0  0  0  0  0  0  0999 V2000
    1.6796    4.8634   -0.0259 O   0  0  0  0  0  0  0  0  0  0  0  0
    0.5255    3.9575   -0.3203 P   0  0  0  0  0  0  0  0  0  0  0  0
   -0.7282    4.8006   -0.8723 O   0  0  0  0  0  0  0  0  0  0  0  0
    0.7707    2.8556   -1.4704 O   0  0  0  0  0  0  0  0  0  0  0  0
    1.4543    1.7226   -1.0999 C   0  0  0  0  0  0  0  0  0  0  0  0
    2.7464    1.5380   -1.5971 C   0  0  0  0  0  0  0  0  0  0  0  0
    3.5425    2.7821   -2.7865 Br  0  0  0  0  0  0  0  0  0  0  0  0
    3.4788    0.4223   -1.2184 C   0  0  0  0  0  0  0  0  0  0  0  0
    2.9451   -0.4935   -0.3042 C   0  0  0  0  0  0  0  0  0  0  0  0
    1.6229   -0.3203    0.1818 C   0  0  0  0  0  0  0  0  0  0  0  0
    1.1500   -1.2089    1.3286 C   0  0  0  0  0  0  0  0  0  0  0  0
    1.8827   -2.5446    1.4225 C   0  0  0  0  0  0  0  0  0  0  0  0
    3.3845   -2.3190    1.4067 C   0  0  0  0  0  0  0  0  0  0  0  0
    3.8019   -1.6748    0.0916 C   0  0  0  0  0  0  0  0  0  0  0  0
    0.8159    0.7816   -0.2594 C   0  0  0  0  0  0  0  0  0  0  0  0
   -0.5637    0.9695    0.1134 C   0  0  0  0  0  0  0  0  0  0  0  0
   -0.9763    2.1644    0.7514 C   0  0  0  0  0  0  0  0  0  0  0  0
   -0.0691    3.1770    0.9583 O   0  0  0  0  0  0  0  0  0  0  0  0
   -2.2747    2.3498    1.2354 C   0  0  0  0  0  0  0  0  0  0  0  0
   -2.7775    3.9308    2.1574 Br  0  0  0  0  0  0  0  0  0  0  0  0
   -3.2331    1.3652    1.0443 C   0  0  0  0  0  0  0  0  0  0  0  0
   -2.9173    0.2058    0.3276 C   0  0  0  0  0  0  0  0  0  0  0  0
   -1.5939    0.0031   -0.1438 C   0  0  0  0  0  0  0  0  0  0  0  0
   -1.3378   -1.1584   -1.1006 C   0  0  0  0  0  0  0  0  0  0  0  0
   -2.3405   -2.3022   -0.9738 C   0  0  0  0  0  0  0  0  0  0  0  0
   -3.7587   -1.7632   -1.0391 C   0  0  0  0  0  0  0  0  0  0  0  0
   -4.0115   -0.8185    0.1279 C   0  0  0  0  0  0  0  0  0  0  0  0
   -0.6594    5.7252   -0.5712 H   0  0  0  0  0  0  0  0  0  0  0  0
    4.4840    0.2750   -1.6083 H   0  0  0  0  0  0  0  0  0  0  0  0
    0.0829   -1.4289    1.2718 H   0  0  0  0  0  0  0  0  0  0  0  0
    1.3082   -0.6479    2.2592 H   0  0  0  0  0  0  0  0  0  0  0  0
    1.5908   -3.0592    2.3448 H   0  0  0  0  0  0  0  0  0  0  0  0
    1.5932   -3.1919    0.5851 H   0  0  0  0  0  0  0  0  0  0  0  0
    3.9128   -3.2701    1.5367 H   0  0  0  0  0  0  0  0  0  0  0  0
    3.6703   -1.6743    2.2475 H   0  0  0  0  0  0  0  0  0  0  0  0
    4.8511   -1.3660    0.1741 H   0  0  0  0  0  0  0  0  0  0  0  0
    3.7413   -2.4181   -0.7135 H   0  0  0  0  0  0  0  0  0  0  0  0
   -4.2422    1.5079    1.4254 H   0  0  0  0  0  0  0  0  0  0  0  0
   -1.3839   -0.7538   -2.1204 H   0  0  0  0  0  0  0  0  0  0  0  0
   -0.3426   -1.5880   -0.9778 H   0  0  0  0  0  0  0  0  0  0  0  0
   -2.1769   -3.0249   -1.7811 H   0  0  0  0  0  0  0  0  0  0  0  0
   -2.1860   -2.8343   -0.0266 H   0  0  0  0  0  0  0  0  0  0  0  0
   -4.4800   -2.5875   -1.0107 H   0  0  0  0  0  0  0  0  0  0  0  0
   -3.9102   -1.2351   -1.9889 H   0  0  0  0  0  0  0  0  0  0  0  0
   -4.1003   -1.3996    1.0546 H   0  0  0  0  0  0  0  0  0  0  0  0
   -4.9717   -0.3144   -0.0359 H   0  0  0  0  0  0  0  0  0  0  0  0
  2  1  2  0  0  0  0
  2 18  1  0  0  0  0
  3 28  1  0  0  0  0
  3  2  1  0  0  0  0
  4  5  1  0  0  0  0
  4  2  1  0  0  0  0
  5 15  2  0  0  0  0
  6  8  2  0  0  0  0
  6  5  1  0  0  0  0
  7  6  1  0  0  0  0
  8  9  1  0  0  0  0
  9 14  1  0  0  0  0
  9 10  2  0  0  0  0
 10 11  1  0  0  0  0
 11 12  1  0  0  0  0
 11 31  1  0  0  0  0
 12 32  1  0  0  0  0
 13 12  1  0  0  0  0
 13 34  1  0  0  0  0
 13 35  1  0  0  0  0
 14 36  1  0  0  0  0
 14 13  1  0  0  0  0
 15 16  1  0  0  0  0
 15 10  1  0  0  0  0
 16 17  1  0  0  0  0
 17 18  1  0  0  0  0
 17 19  2  0  0  0  0
 19 20  1  0  0  0  0
 21 19  1  0  0  0  0
 21 38  1  0  0  0  0
 22 21  2  0  0  0  0
 23 16  2  0  0  0  0
 23 22  1  0  0  0  0
 24 40  1  0  0  0  0
 24 25  1  0  0  0  0
 24 23  1  0  0  0  0
 25 42  1  0  0  0  0
 26 43  1  0  0  0  0
 26 25  1  0  0  0  0
 26 27  1  0  0  0  0
 27 22  1  0  0  0  0
 27 45  1  0  0  0  0
 29  8  1  0  0  0  0
 30 11  1  0  0  0  0
 33 12  1  0  0  0  0
 37 14  1  0  0  0  0
 39 24  1  0  0  0  0
 41 25  1  0  0  0  0
 44 26  1  0  0  0  0
 46 27  1  0  0  0  0
M  END
$$$$
