O=P1(O)OC2=[C@]([C@]3=C(Cl)C=C(Cl)C=C3Cl)C=C4C(CCCC4)=[C@]2[C@]5=C(O1)C(C6=C(Cl)C=C(Cl)C=C6Cl)=CC7=C5CCCC7
 OpenBabel09032010373D

 66 72  0  0  0  0  0  0  0  0999 V2000
   -0.6759   -3.3828    1.6932 O   0  0  0  0  0  0  0  0  0  0  0  0
   -0.1147   -2.5787    0.5622 P   0  0  0  0  0  0  0  0  0  0  0  0
    0.5200   -3.5655   -0.5375 O   0  0  0  0  0  0  0  0  0  0  0  0
    1.0971   -1.5885    0.9452 O   0  0  0  0  0  0  0  0  0  0  0  0
    1.5197   -0.6548    0.0240 C   0  0  0  0  0  0  0  0  0  0  0  0
    2.8507   -0.7555   -0.4213 C   0  0  0  0  0  0  0  0  0  0  0  0
    3.7655   -1.7935    0.0937 C   0  0  0  0  0  0  0  0  0  0  0  0
    4.3555   -1.6796    1.3715 C   0  0  0  0  0  0  0  0  0  0  0  0
    4.0964   -0.2915    2.3784 Cl  0  0  0  0  0  0  0  0  0  0  0  0
    5.1965   -2.6759    1.8774 C   0  0  0  0  0  0  0  0  0  0  0  0
    5.4687   -3.8020    1.1108 C   0  0  0  0  0  0  0  0  0  0  0  0
    6.5029   -5.0280    1.7316 Cl  0  0  0  0  0  0  0  0  0  0  0  0
    4.9179   -3.9414   -0.1571 C   0  0  0  0  0  0  0  0  0  0  0  0
    4.0756   -2.9449   -0.6615 C   0  0  0  0  0  0  0  0  0  0  0  0
    3.4439   -3.1940   -2.2567 Cl  0  0  0  0  0  0  0  0  0  0  0  0
    3.2958    0.1626   -1.3760 C   0  0  0  0  0  0  0  0  0  0  0  0
    2.4312    1.1223   -1.9190 C   0  0  0  0  0  0  0  0  0  0  0  0
    1.0965    1.2063   -1.4581 C   0  0  0  0  0  0  0  0  0  0  0  0
    0.1187    2.1255   -2.1811 C   0  0  0  0  0  0  0  0  0  0  0  0
    0.5935    2.5692   -3.5639 C   0  0  0  0  0  0  0  0  0  0  0  0
    2.0153    3.0970   -3.4716 C   0  0  0  0  0  0  0  0  0  0  0  0
    2.9572    1.9757   -3.0509 C   0  0  0  0  0  0  0  0  0  0  0  0
    0.6410    0.3737   -0.3883 C   0  0  0  0  0  0  0  0  0  0  0  0
   -0.6399    0.5361    0.2395 C   0  0  0  0  0  0  0  0  0  0  0  0
   -1.5775   -0.5184    0.2207 C   0  0  0  0  0  0  0  0  0  0  0  0
   -1.1943   -1.7380   -0.2886 O   0  0  0  0  0  0  0  0  0  0  0  0
   -2.9028   -0.3877    0.6697 C   0  0  0  0  0  0  0  0  0  0  0  0
   -3.8627   -1.5056    0.5870 C   0  0  0  0  0  0  0  0  0  0  0  0
   -4.4772   -1.8563   -0.6341 C   0  0  0  0  0  0  0  0  0  0  0  0
   -4.1910   -0.9612   -2.0912 Cl  0  0  0  0  0  0  0  0  0  0  0  0
   -5.3593   -2.9379   -0.7213 C   0  0  0  0  0  0  0  0  0  0  0  0
   -5.6451   -3.6871    0.4135 C   0  0  0  0  0  0  0  0  0  0  0  0
   -6.7264   -5.0202    0.3054 Cl  0  0  0  0  0  0  0  0  0  0  0  0
   -5.0675   -3.3641    1.6352 C   0  0  0  0  0  0  0  0  0  0  0  0
   -4.1867   -2.2813    1.7211 C   0  0  0  0  0  0  0  0  0  0  0  0
   -3.5176   -1.9401    3.2834 Cl  0  0  0  0  0  0  0  0  0  0  0  0
   -3.2892    0.8376    1.2181 C   0  0  0  0  0  0  0  0  0  0  0  0
   -2.3709    1.8854    1.3742 C   0  0  0  0  0  0  0  0  0  0  0  0
   -1.0389    1.7262    0.9246 C   0  0  0  0  0  0  0  0  0  0  0  0
   -0.0066    2.7940    1.2663 C   0  0  0  0  0  0  0  0  0  0  0  0
   -0.4411    3.7380    2.3864 C   0  0  0  0  0  0  0  0  0  0  0  0
   -1.8358    4.2674    2.0973 C   0  0  0  0  0  0  0  0  0  0  0  0
   -2.8383    3.1200    2.1115 C   0  0  0  0  0  0  0  0  0  0  0  0
    0.1159   -4.4486   -0.4619 H   0  0  0  0  0  0  0  0  0  0  0  0
    5.6359   -2.5694    2.8661 H   0  0  0  0  0  0  0  0  0  0  0  0
    5.1401   -4.8227   -0.7538 H   0  0  0  0  0  0  0  0  0  0  0  0
    4.3201    0.1016   -1.7422 H   0  0  0  0  0  0  0  0  0  0  0  0
   -0.0545    3.0238   -1.5861 H   0  0  0  0  0  0  0  0  0  0  0  0
   -0.8441    1.6163   -2.3079 H   0  0  0  0  0  0  0  0  0  0  0  0
   -0.0748    3.3473   -3.9496 H   0  0  0  0  0  0  0  0  0  0  0  0
    0.5502    1.7283   -4.2675 H   0  0  0  0  0  0  0  0  0  0  0  0
    2.3351    3.5061   -4.4364 H   0  0  0  0  0  0  0  0  0  0  0  0
    2.0596    3.9174   -2.7441 H   0  0  0  0  0  0  0  0  0  0  0  0
    3.1328    1.3189   -3.9128 H   0  0  0  0  0  0  0  0  0  0  0  0
    3.9223    2.4120   -2.7664 H   0  0  0  0  0  0  0  0  0  0  0  0
   -5.8194   -3.1926   -1.6729 H   0  0  0  0  0  0  0  0  0  0  0  0
   -5.2955   -3.9536    2.5199 H   0  0  0  0  0  0  0  0  0  0  0  0
   -4.3087    0.9656    1.5807 H   0  0  0  0  0  0  0  0  0  0  0  0
    0.2043    3.4009    0.3842 H   0  0  0  0  0  0  0  0  0  0  0  0
    0.9307    2.3175    1.5775 H   0  0  0  0  0  0  0  0  0  0  0  0
   -0.4313    3.2130    3.3499 H   0  0  0  0  0  0  0  0  0  0  0  0
    0.2702    4.5680    2.4639 H   0  0  0  0  0  0  0  0  0  0  0  0
   -2.1223    5.0179    2.8424 H   0  0  0  0  0  0  0  0  0  0  0  0
   -1.8481    4.7647    1.1191 H   0  0  0  0  0  0  0  0  0  0  0  0
   -3.7841    3.4707    1.6812 H   0  0  0  0  0  0  0  0  0  0  0  0
   -3.0348    2.8347    3.1531 H   0  0  0  0  0  0  0  0  0  0  0  0
  2  4  1  0  0  0  0
  2  1  2  0  0  0  0
  3 44  1  0  0  0  0
  3  2  1  0  0  0  0
  5  4  1  0  0  0  0
  6  5  1  0  0  0  0
  6  7  1  0  0  0  0
  7  8  2  0  0  0  0
  8 10  1  0  0  0  0
  8  9  1  0  0  0  0
 10 45  1  0  0  0  0
 11 12  1  0  0  0  0
 11 10  2  0  0  0  0
 13 11  1  0  0  0  0
 14 13  2  0  0  0  0
 14  7  1  0  0  0  0
 15 14  1  0  0  0  0
 16  6  2  0  0  0  0
 17 18  2  0  0  0  0
 17 16  1  0  0  0  0
 18 23  1  0  0  0  0
 19 48  1  0  0  0  0
 19 18  1  0  0  0  0
 20 21  1  0  0  0  0
 20 19  1  0  0  0  0
 21 22  1  0  0  0  0
 21 53  1  0  0  0  0
 22 55  1  0  0  0  0
 22 17  1  0  0  0  0
 23  5  2  0  0  0  0
 23 24  1  0  0  0  0
 24 39  1  0  0  0  0
 25 24  2  0  0  0  0
 25 27  1  0  0  0  0
 26 25  1  0  0  0  0
 26  2  1  0  0  0  0
 27 37  2  0  0  0  0
 28 27  1  0  0  0  0
 28 35  2  0  0  0  0
 29 28  1  0  0  0  0
 30 29  1  0  0  0  0
 31 29  2  0  0  0  0
 31 32  1  0  0  0  0
 32 34  2  0  0  0  0
 33 32  1  0  0  0  0
 34 35  1  0  0  0  0
 34 57  1  0  0  0  0
 35 36  1  0  0  0  0
 37 38  1  0  0  0  0
 37 58  1  0  0  0  0
 38 43  1  0  0  0  0
 39 40  1  0  0  0  0
 39 38  2  0  0  0  0
 40 60  1  0  0  0  0
 40 41  1  0  0  0  0
 41 62  1  0  0  0  0
 41 61  1  0  0  0  0
 42 43  1  0  0  0  0
 42 41  1  0  0  0  0
 42 63  1  0  0  0  0
 43 66  1  0  0  0  0
 46 13  1  0  0  0  0
 47 16  1  0  0  0  0
 49 19  1  0  0  0  0
 50 20  1  0  0  0  0
 51 20  1  0  0  0  0
 52 21  1  0  0  0  0
 54 22  1  0  0  0  0
 56 31  1  0  0  0  0
 59 40  1  0  0  0  0
 64 42  1  0  0  0  0
 65 43  1  0  0  0  0
M  END
$$$$
