O=P1(O)OC2=C(C3=C(C)C=C(C)C=C3C)C=C4C(C=CC=C4)=C2C5=C(O1)[C@@]([C@@]6=C(C)C=C(C)C=C6C)=CC7=C5C=CC=C7
 OpenBabel09032010383D

 76 82  0  0  0  0  0  0  0  0999 V2000
    0.6345    2.8323    0.5644 O   0  0  0  0  0  0  0  0  0  0  0  0
    0.0387    1.6603   -0.1502 P   0  0  0  0  0  0  0  0  0  0  0  0
   -0.7498    2.1243   -1.4735 O   0  0  0  0  0  0  0  0  0  0  0  0
   -1.0786    0.8586    0.6853 O   0  0  0  0  0  0  0  0  0  0  0  0
   -1.5377   -0.3556    0.2253 C   0  0  0  0  0  0  0  0  0  0  0  0
   -2.8978   -0.4147   -0.1334 C   0  0  0  0  0  0  0  0  0  0  0  0
   -3.7729    0.7775   -0.1054 C   0  0  0  0  0  0  0  0  0  0  0  0
   -4.2796    1.2759    1.1210 C   0  0  0  0  0  0  0  0  0  0  0  0
   -3.9584    0.6195    2.4405 C   0  0  0  0  0  0  0  0  0  0  0  0
   -5.0826    2.4296    1.1300 C   0  0  0  0  0  0  0  0  0  0  0  0
   -5.4148    3.0902   -0.0547 C   0  0  0  0  0  0  0  0  0  0  0  0
   -6.3136    4.2910   -0.0292 C   0  0  0  0  0  0  0  0  0  0  0  0
   -4.9518    2.5768   -1.2676 C   0  0  0  0  0  0  0  0  0  0  0  0
   -4.1236    1.4416   -1.3090 C   0  0  0  0  0  0  0  0  0  0  0  0
   -3.6826    0.9364   -2.6610 C   0  0  0  0  0  0  0  0  0  0  0  0
   -3.4183   -1.6461   -0.5348 C   0  0  0  0  0  0  0  0  0  0  0  0
   -2.6090   -2.7799   -0.6329 C   0  0  0  0  0  0  0  0  0  0  0  0
   -1.2339   -2.7082   -0.2817 C   0  0  0  0  0  0  0  0  0  0  0  0
   -0.4698   -3.8805   -0.5156 C   0  0  0  0  0  0  0  0  0  0  0  0
   -1.0342   -5.0660   -0.9947 C   0  0  0  0  0  0  0  0  0  0  0  0
   -2.3888   -5.1186   -1.2782 C   0  0  0  0  0  0  0  0  0  0  0  0
   -3.1690   -3.9794   -1.1048 C   0  0  0  0  0  0  0  0  0  0  0  0
   -0.6745   -1.4794    0.2295 C   0  0  0  0  0  0  0  0  0  0  0  0
    0.6812   -1.3633    0.7317 C   0  0  0  0  0  0  0  0  0  0  0  0
    1.5482   -0.3684    0.2159 C   0  0  0  0  0  0  0  0  0  0  0  0
    1.0602    0.5418   -0.6954 O   0  0  0  0  0  0  0  0  0  0  0  0
    2.9179   -0.2909    0.5238 C   0  0  0  0  0  0  0  0  0  0  0  0
    3.8122    0.7122   -0.0905 C   0  0  0  0  0  0  0  0  0  0  0  0
    4.3241    0.5158   -1.3982 C   0  0  0  0  0  0  0  0  0  0  0  0
    3.9558   -0.6942   -2.2193 C   0  0  0  0  0  0  0  0  0  0  0  0
    5.1743    1.4779   -1.9698 C   0  0  0  0  0  0  0  0  0  0  0  0
    5.5563    2.6181   -1.2599 C   0  0  0  0  0  0  0  0  0  0  0  0
    6.4430    3.6483   -1.8937 C   0  0  0  0  0  0  0  0  0  0  0  0
    5.0525    2.8132    0.0279 C   0  0  0  0  0  0  0  0  0  0  0  0
    4.1822    1.8811    0.6196 C   0  0  0  0  0  0  0  0  0  0  0  0
    3.7066    2.1471    2.0257 C   0  0  0  0  0  0  0  0  0  0  0  0
    3.4382   -1.2094    1.4377 C   0  0  0  0  0  0  0  0  0  0  0  0
    2.6227   -2.1559    2.0623 C   0  0  0  0  0  0  0  0  0  0  0  0
    1.2419   -2.2327    1.7374 C   0  0  0  0  0  0  0  0  0  0  0  0
    0.4737   -3.1593    2.4878 C   0  0  0  0  0  0  0  0  0  0  0  0
    1.0389   -4.0027    3.4483 C   0  0  0  0  0  0  0  0  0  0  0  0
    2.3979   -3.9376    3.7083 C   0  0  0  0  0  0  0  0  0  0  0  0
    3.1829   -3.0148    3.0232 C   0  0  0  0  0  0  0  0  0  0  0  0
   -1.2759    2.9218   -1.2810 H   0  0  0  0  0  0  0  0  0  0  0  0
   -2.9367    0.8616    2.7474 H   0  0  0  0  0  0  0  0  0  0  0  0
   -4.6367    0.9634    3.2292 H   0  0  0  0  0  0  0  0  0  0  0  0
   -4.0768   -0.4669    2.3790 H   0  0  0  0  0  0  0  0  0  0  0  0
   -5.4596    2.8135    2.0768 H   0  0  0  0  0  0  0  0  0  0  0  0
   -6.0877    4.9658   -0.8616 H   0  0  0  0  0  0  0  0  0  0  0  0
   -7.3594    3.9773   -0.1016 H   0  0  0  0  0  0  0  0  0  0  0  0
   -6.1778    4.8612    0.8958 H   0  0  0  0  0  0  0  0  0  0  0  0
   -5.2386    3.0669   -2.1968 H   0  0  0  0  0  0  0  0  0  0  0  0
   -4.3285    0.1123   -2.9796 H   0  0  0  0  0  0  0  0  0  0  0  0
   -2.6434    0.5961   -2.6476 H   0  0  0  0  0  0  0  0  0  0  0  0
   -3.7412    1.7286   -3.4154 H   0  0  0  0  0  0  0  0  0  0  0  0
   -4.4722   -1.7052   -0.8049 H   0  0  0  0  0  0  0  0  0  0  0  0
    0.6041   -3.8840   -0.3372 H   0  0  0  0  0  0  0  0  0  0  0  0
   -0.4068   -5.9397   -1.1494 H   0  0  0  0  0  0  0  0  0  0  0  0
   -2.8356   -6.0357   -1.6519 H   0  0  0  0  0  0  0  0  0  0  0  0
   -4.2261   -4.0319   -1.3593 H   0  0  0  0  0  0  0  0  0  0  0  0
    2.9144   -0.6281   -2.5486 H   0  0  0  0  0  0  0  0  0  0  0  0
    4.5837   -0.7749   -3.1134 H   0  0  0  0  0  0  0  0  0  0  0  0
    4.1037   -1.6150   -1.6463 H   0  0  0  0  0  0  0  0  0  0  0  0
    5.5460    1.3328   -2.9825 H   0  0  0  0  0  0  0  0  0  0  0  0
    7.1354    3.1845   -2.6041 H   0  0  0  0  0  0  0  0  0  0  0  0
    7.0488    4.1605   -1.1388 H   0  0  0  0  0  0  0  0  0  0  0  0
    5.8363    4.3893   -2.4232 H   0  0  0  0  0  0  0  0  0  0  0  0
    5.3344    3.7080    0.5803 H   0  0  0  0  0  0  0  0  0  0  0  0
    2.6530    1.8832    2.1527 H   0  0  0  0  0  0  0  0  0  0  0  0
    4.3096    1.5742    2.7372 H   0  0  0  0  0  0  0  0  0  0  0  0
    3.7956    3.2093    2.2786 H   0  0  0  0  0  0  0  0  0  0  0  0
    4.4992   -1.1595    1.6809 H   0  0  0  0  0  0  0  0  0  0  0  0
   -0.6027   -3.2298    2.3411 H   0  0  0  0  0  0  0  0  0  0  0  0
    0.4092   -4.7017    3.9922 H   0  0  0  0  0  0  0  0  0  0  0  0
    2.8454   -4.5888    4.4540 H   0  0  0  0  0  0  0  0  0  0  0  0
    4.2444   -2.9607    3.2588 H   0  0  0  0  0  0  0  0  0  0  0  0
  2  1  2  0  0  0  0
  2  4  1  0  0  0  0
  3 44  1  0  0  0  0
  3  2  1  0  0  0  0
  5 23  1  0  0  0  0
  5  4  1  0  0  0  0
  6  7  1  0  0  0  0
  6  5  2  0  0  0  0
  7  8  2  0  0  0  0
  8 10  1  0  0  0  0
  8  9  1  0  0  0  0
  9 45  1  0  0  0  0
  9 46  1  0  0  0  0
 10 48  1  0  0  0  0
 11 12  1  0  0  0  0
 11 10  2  0  0  0  0
 12 51  1  0  0  0  0
 13 11  1  0  0  0  0
 14 13  2  0  0  0  0
 14  7  1  0  0  0  0
 15 54  1  0  0  0  0
 15 14  1  0  0  0  0
 16  6  1  0  0  0  0
 17 16  2  0  0  0  0
 17 18  1  0  0  0  0
 18 23  2  0  0  0  0
 19 57  1  0  0  0  0
 19 18  1  0  0  0  0
 20 19  2  0  0  0  0
 21 22  2  0  0  0  0
 21 20  1  0  0  0  0
 22 17  1  0  0  0  0
 23 24  1  0  0  0  0
 24 39  2  0  0  0  0
 25 27  2  0  0  0  0
 25 24  1  0  0  0  0
 26  2  1  0  0  0  0
 26 25  1  0  0  0  0
 27 37  1  0  0  0  0
 28 27  1  0  0  0  0
 28 35  2  0  0  0  0
 29 28  1  0  0  0  0
 30 63  1  0  0  0  0
 30 29  1  0  0  0  0
 31 29  2  0  0  0  0
 31 32  1  0  0  0  0
 32 34  2  0  0  0  0
 33 32  1  0  0  0  0
 33 66  1  0  0  0  0
 34 68  1  0  0  0  0
 34 35  1  0  0  0  0
 35 36  1  0  0  0  0
 36 69  1  0  0  0  0
 36 71  1  0  0  0  0
 36 70  1  0  0  0  0
 37 72  1  0  0  0  0
 37 38  2  0  0  0  0
 38 43  1  0  0  0  0
 39 38  1  0  0  0  0
 39 40  1  0  0  0  0
 40 41  2  0  0  0  0
 41 42  1  0  0  0  0
 41 74  1  0  0  0  0
 42 75  1  0  0  0  0
 43 76  1  0  0  0  0
 43 42  2  0  0  0  0
 47  9  1  0  0  0  0
 49 12  1  0  0  0  0
 50 12  1  0  0  0  0
 52 13  1  0  0  0  0
 53 15  1  0  0  0  0
 55 15  1  0  0  0  0
 56 16  1  0  0  0  0
 58 20  1  0  0  0  0
 59 21  1  0  0  0  0
 60 22  1  0  0  0  0
 61 30  1  0  0  0  0
 62 30  1  0  0  0  0
 64 31  1  0  0  0  0
 65 33  1  0  0  0  0
 67 33  1  0  0  0  0
 73 40  1  0  0  0  0
M  END
$$$$
