O=P1(O)OC2=C(C3=C(C=CC=C4)C4=C(C5=CC(C=CC=C6)=C6C=C5)C7=C3C=CC=C7)C=C8C(C=CC=C8)=[C@]2[C@]9=C(O1)C(C%10=C(C=CC=C%11)C%11=C(C%12=CC=C(C=CC=C%13)C%13=C%12)C%14=C%10C=CC=C%14)=CC%15=C9C=CC=C%15
 OpenBabel09032010373D

114128  0  0  0  0  0  0  0  0999 V2000
    0.3121    1.0973   -0.5267 O   0  0  0  0  0  0  0  0  0  0  0  0
   -0.0797   -0.2635   -0.0481 P   0  0  0  0  0  0  0  0  0  0  0  0
   -0.6785   -1.1526   -1.2462 O   0  0  0  0  0  0  0  0  0  0  0  0
   -1.2514   -0.2817    1.0573 O   0  0  0  0  0  0  0  0  0  0  0  0
   -1.5988   -1.4717    1.6554 C   0  0  0  0  0  0  0  0  0  0  0  0
   -2.9150   -1.9205    1.4305 C   0  0  0  0  0  0  0  0  0  0  0  0
   -3.8805   -1.1497    0.6016 C   0  0  0  0  0  0  0  0  0  0  0  0
   -4.0996   -1.5180   -0.7620 C   0  0  0  0  0  0  0  0  0  0  0  0
   -3.4388   -2.6173   -1.3731 C   0  0  0  0  0  0  0  0  0  0  0  0
   -3.6407   -2.9710   -2.7063 C   0  0  0  0  0  0  0  0  0  0  0  0
   -4.5174   -2.2344   -3.4774 C   0  0  0  0  0  0  0  0  0  0  0  0
   -5.1835   -1.1510   -2.9076 C   0  0  0  0  0  0  0  0  0  0  0  0
   -5.0004   -0.7649   -1.5526 C   0  0  0  0  0  0  0  0  0  0  0  0
   -5.6861    0.3476   -0.9755 C   0  0  0  0  0  0  0  0  0  0  0  0
   -6.6221    1.1410   -1.8070 C   0  0  0  0  0  0  0  0  0  0  0  0
   -6.1665    2.2606   -2.5230 C   0  0  0  0  0  0  0  0  0  0  0  0
   -7.0384    3.0222   -3.3185 C   0  0  0  0  0  0  0  0  0  0  0  0
   -6.5847    4.1411   -4.0350 C   0  0  0  0  0  0  0  0  0  0  0  0
   -7.4626    4.8879   -4.8219 C   0  0  0  0  0  0  0  0  0  0  0  0
   -8.8042    4.5265   -4.9030 C   0  0  0  0  0  0  0  0  0  0  0  0
   -9.2707    3.4167   -4.1963 C   0  0  0  0  0  0  0  0  0  0  0  0
   -8.4005    2.6549   -3.3998 C   0  0  0  0  0  0  0  0  0  0  0  0
   -8.8544    1.5375   -2.6831 C   0  0  0  0  0  0  0  0  0  0  0  0
   -7.9757    0.7896   -1.8958 C   0  0  0  0  0  0  0  0  0  0  0  0
   -5.4784    0.7080    0.3910 C   0  0  0  0  0  0  0  0  0  0  0  0
   -4.5767   -0.0428    1.1820 C   0  0  0  0  0  0  0  0  0  0  0  0
   -4.4021    0.3440    2.5384 C   0  0  0  0  0  0  0  0  0  0  0  0
   -5.0727    1.4262    3.1061 C   0  0  0  0  0  0  0  0  0  0  0  0
   -5.9486    2.1607    2.3321 C   0  0  0  0  0  0  0  0  0  0  0  0
   -6.1465    1.8047    0.9990 C   0  0  0  0  0  0  0  0  0  0  0  0
   -3.3193   -3.1116    2.0360 C   0  0  0  0  0  0  0  0  0  0  0  0
   -2.4358   -3.8634    2.8125 C   0  0  0  0  0  0  0  0  0  0  0  0
   -1.1153   -3.3937    3.0497 C   0  0  0  0  0  0  0  0  0  0  0  0
   -0.2635   -4.2646    3.7760 C   0  0  0  0  0  0  0  0  0  0  0  0
   -0.6999   -5.4882    4.2914 C   0  0  0  0  0  0  0  0  0  0  0  0
   -2.0073   -5.8962    4.0824 C   0  0  0  0  0  0  0  0  0  0  0  0
   -2.8675   -5.0905    3.3425 C   0  0  0  0  0  0  0  0  0  0  0  0
   -0.6876   -2.1197    2.5240 C   0  0  0  0  0  0  0  0  0  0  0  0
    0.5717   -1.4868    2.8691 C   0  0  0  0  0  0  0  0  0  0  0  0
    1.4544   -1.0449    1.8534 C   0  0  0  0  0  0  0  0  0  0  0  0
    1.0946   -1.1953    0.5345 O   0  0  0  0  0  0  0  0  0  0  0  0
    2.7436   -0.5419    2.1049 C   0  0  0  0  0  0  0  0  0  0  0  0
    3.6601   -0.1333    1.0092 C   0  0  0  0  0  0  0  0  0  0  0  0
    3.7322    1.2430    0.6284 C   0  0  0  0  0  0  0  0  0  0  0  0
    2.9542    2.2528    1.2572 C   0  0  0  0  0  0  0  0  0  0  0  0
    3.0232    3.5952    0.8881 C   0  0  0  0  0  0  0  0  0  0  0  0
    3.8778    3.9754   -0.1273 C   0  0  0  0  0  0  0  0  0  0  0  0
    4.6509    3.0085   -0.7679 C   0  0  0  0  0  0  0  0  0  0  0  0
    4.6014    1.6321   -0.4182 C   0  0  0  0  0  0  0  0  0  0  0  0
    5.3881    0.6437   -1.0857 C   0  0  0  0  0  0  0  0  0  0  0  0
    6.2726    1.0470   -2.2045 C   0  0  0  0  0  0  0  0  0  0  0  0
    5.7851    1.0819   -3.5180 C   0  0  0  0  0  0  0  0  0  0  0  0
    6.6149    1.4609   -4.5748 C   0  0  0  0  0  0  0  0  0  0  0  0
    7.9533    1.8125   -4.3442 C   0  0  0  0  0  0  0  0  0  0  0  0
    8.8010    2.1938   -5.3968 C   0  0  0  0  0  0  0  0  0  0  0  0
   10.1310    2.5401   -5.1527 C   0  0  0  0  0  0  0  0  0  0  0  0
   10.6293    2.5096   -3.8536 C   0  0  0  0  0  0  0  0  0  0  0  0
    9.7994    2.1335   -2.7960 C   0  0  0  0  0  0  0  0  0  0  0  0
    8.4594    1.7820   -3.0249 C   0  0  0  0  0  0  0  0  0  0  0  0
    7.6120    1.4004   -1.9712 C   0  0  0  0  0  0  0  0  0  0  0  0
    5.3251   -0.7299   -0.6971 C   0  0  0  0  0  0  0  0  0  0  0  0
    4.4623   -1.1191    0.3549 C   0  0  0  0  0  0  0  0  0  0  0  0
    4.4321   -2.4929    0.7179 C   0  0  0  0  0  0  0  0  0  0  0  0
    5.2099   -3.4571    0.0785 C   0  0  0  0  0  0  0  0  0  0  0  0
    6.0480   -3.0776   -0.9512 C   0  0  0  0  0  0  0  0  0  0  0  0
    6.1017   -1.7372   -1.3304 C   0  0  0  0  0  0  0  0  0  0  0  0
    3.1633   -0.4340    3.4324 C   0  0  0  0  0  0  0  0  0  0  0  0
    2.3159   -0.7702    4.4895 C   0  0  0  0  0  0  0  0  0  0  0  0
    1.0126   -1.2727    4.2277 C   0  0  0  0  0  0  0  0  0  0  0  0
    0.1894   -1.4874    5.3631 C   0  0  0  0  0  0  0  0  0  0  0  0
    0.6402   -1.2892    6.6714 C   0  0  0  0  0  0  0  0  0  0  0  0
    1.9344   -0.8486    6.8941 C   0  0  0  0  0  0  0  0  0  0  0  0
    2.7638   -0.5839    5.8083 C   0  0  0  0  0  0  0  0  0  0  0  0
   -1.2425   -0.6094   -1.8267 H   0  0  0  0  0  0  0  0  0  0  0  0
   -2.7274   -3.2201   -0.8104 H   0  0  0  0  0  0  0  0  0  0  0  0
   -3.1096   -3.8178   -3.1326 H   0  0  0  0  0  0  0  0  0  0  0  0
   -4.6891   -2.4956   -4.5180 H   0  0  0  0  0  0  0  0  0  0  0  0
   -5.8660   -0.5995   -3.5531 H   0  0  0  0  0  0  0  0  0  0  0  0
   -5.1157    2.5386   -2.4544 H   0  0  0  0  0  0  0  0  0  0  0  0
   -5.5395    4.4388   -3.9840 H   0  0  0  0  0  0  0  0  0  0  0  0
   -7.0966    5.7514   -5.3708 H   0  0  0  0  0  0  0  0  0  0  0  0
   -9.4886    5.1073   -5.5157 H   0  0  0  0  0  0  0  0  0  0  0  0
  -10.3220    3.1488   -4.2716 H   0  0  0  0  0  0  0  0  0  0  0  0
   -9.8996    1.2396   -2.7320 H   0  0  0  0  0  0  0  0  0  0  0  0
   -8.3520   -0.0729   -1.3492 H   0  0  0  0  0  0  0  0  0  0  0  0
   -3.7210   -0.2028    3.1875 H   0  0  0  0  0  0  0  0  0  0  0  0
   -4.9027    1.6883    4.1466 H   0  0  0  0  0  0  0  0  0  0  0  0
   -6.4802    3.0087    2.7549 H   0  0  0  0  0  0  0  0  0  0  0  0
   -6.8471    2.4118    0.4277 H   0  0  0  0  0  0  0  0  0  0  0  0
   -4.3368   -3.4650    1.8706 H   0  0  0  0  0  0  0  0  0  0  0  0
    0.7798   -4.0021    3.9426 H   0  0  0  0  0  0  0  0  0  0  0  0
   -0.0114   -6.1181    4.8488 H   0  0  0  0  0  0  0  0  0  0  0  0
   -2.3557   -6.8462    4.4772 H   0  0  0  0  0  0  0  0  0  0  0  0
   -3.8840   -5.4403    3.1699 H   0  0  0  0  0  0  0  0  0  0  0  0
    2.2528    2.0013    2.0501 H   0  0  0  0  0  0  0  0  0  0  0  0
    2.3998    4.3306    1.3884 H   0  0  0  0  0  0  0  0  0  0  0  0
    3.9418    5.0158   -0.4325 H   0  0  0  0  0  0  0  0  0  0  0  0
    5.3053    3.3530   -1.5669 H   0  0  0  0  0  0  0  0  0  0  0  0
    4.7505    0.8134   -3.7224 H   0  0  0  0  0  0  0  0  0  0  0  0
    6.2076    1.4781   -5.5832 H   0  0  0  0  0  0  0  0  0  0  0  0
    8.4290    2.2231   -6.4184 H   0  0  0  0  0  0  0  0  0  0  0  0
   10.7762    2.8329   -5.9768 H   0  0  0  0  0  0  0  0  0  0  0  0
   11.6644    2.7784   -3.6607 H   0  0  0  0  0  0  0  0  0  0  0  0
   10.2080    2.1163   -1.7880 H   0  0  0  0  0  0  0  0  0  0  0  0
    7.9941    1.3748   -0.9519 H   0  0  0  0  0  0  0  0  0  0  0  0
    3.7840   -2.8390    1.5207 H   0  0  0  0  0  0  0  0  0  0  0  0
    5.1538   -4.4970    0.3874 H   0  0  0  0  0  0  0  0  0  0  0  0
    6.6599   -3.8145   -1.4635 H   0  0  0  0  0  0  0  0  0  0  0  0
    6.7756   -1.4839   -2.1474 H   0  0  0  0  0  0  0  0  0  0  0  0
    4.1628   -0.0498    3.6355 H   0  0  0  0  0  0  0  0  0  0  0  0
   -0.8441   -1.8066    5.2426 H   0  0  0  0  0  0  0  0  0  0  0  0
   -0.0274   -1.4756    7.5087 H   0  0  0  0  0  0  0  0  0  0  0  0
    2.2950   -0.6916    7.9068 H   0  0  0  0  0  0  0  0  0  0  0  0
    3.7688   -0.2124    6.0026 H   0  0  0  0  0  0  0  0  0  0  0  0
  1  2  2  0  0  0  0
  2 41  1  0  0  0  0
  2  4  1  0  0  0  0
  3  2  1  0  0  0  0
  4  5  1  0  0  0  0
  5 38  1  0  0  0  0
  6  5  2  0  0  0  0
  6 31  1  0  0  0  0
  7 26  1  0  0  0  0
  7  6  1  0  0  0  0
  8  7  2  0  0  0  0
  9 75  1  0  0  0  0
  9  8  1  0  0  0  0
 10  9  2  0  0  0  0
 11 12  2  0  0  0  0
 11 10  1  0  0  0  0
 12 13  1  0  0  0  0
 13 14  2  0  0  0  0
 13  8  1  0  0  0  0
 14 25  1  0  0  0  0
 15 14  1  0  0  0  0
 16 79  1  0  0  0  0
 16 15  2  0  0  0  0
 17 16  1  0  0  0  0
 18 80  1  0  0  0  0
 18 17  2  0  0  0  0
 19 18  1  0  0  0  0
 20 19  2  0  0  0  0
 20 21  1  0  0  0  0
 21 22  2  0  0  0  0
 22 17  1  0  0  0  0
 22 23  1  0  0  0  0
 23 24  2  0  0  0  0
 24 15  1  0  0  0  0
 24 85  1  0  0  0  0
 25 30  2  0  0  0  0
 25 26  1  0  0  0  0
 26 27  2  0  0  0  0
 27 28  1  0  0  0  0
 27 86  1  0  0  0  0
 28 87  1  0  0  0  0
 29 88  1  0  0  0  0
 29 28  2  0  0  0  0
 30 29  1  0  0  0  0
 31 32  2  0  0  0  0
 32 33  1  0  0  0  0
 32 37  1  0  0  0  0
 33 34  1  0  0  0  0
 34 91  1  0  0  0  0
 34 35  2  0  0  0  0
 35 92  1  0  0  0  0
 36 35  1  0  0  0  0
 36 93  1  0  0  0  0
 37 36  2  0  0  0  0
 38 39  1  0  0  0  0
 38 33  2  0  0  0  0
 39 69  2  0  0  0  0
 40 42  2  0  0  0  0
 40 39  1  0  0  0  0
 41 40  1  0  0  0  0
 42 67  1  0  0  0  0
 43 42  1  0  0  0  0
 44 43  1  0  0  0  0
 44 45  2  0  0  0  0
 45 95  1  0  0  0  0
 46 45  1  0  0  0  0
 46 96  1  0  0  0  0
 47 46  2  0  0  0  0
 48 49  2  0  0  0  0
 48 47  1  0  0  0  0
 49 44  1  0  0  0  0
 50 61  2  0  0  0  0
 50 49  1  0  0  0  0
 51 60  1  0  0  0  0
 51 50  1  0  0  0  0
 52 51  2  0  0  0  0
 53 54  2  0  0  0  0
 53 52  1  0  0  0  0
 54 59  1  0  0  0  0
 55 56  2  0  0  0  0
 55 54  1  0  0  0  0
 56 57  1  0  0  0  0
 57103  1  0  0  0  0
 57 58  2  0  0  0  0
 58104  1  0  0  0  0
 59 58  1  0  0  0  0
 59 60  2  0  0  0  0
 60105  1  0  0  0  0
 61 62  1  0  0  0  0
 62 63  1  0  0  0  0
 62 43  2  0  0  0  0
 63106  1  0  0  0  0
 64107  1  0  0  0  0
 64 63  2  0  0  0  0
 65 64  1  0  0  0  0
 66 65  2  0  0  0  0
 66 61  1  0  0  0  0
 67110  1  0  0  0  0
 67 68  2  0  0  0  0
 68 73  1  0  0  0  0
 69 68  1  0  0  0  0
 69 70  1  0  0  0  0
 70 71  2  0  0  0  0
 71 72  1  0  0  0  0
 71112  1  0  0  0  0
 72113  1  0  0  0  0
 73114  1  0  0  0  0
 73 72  2  0  0  0  0
 74  3  1  0  0  0  0
 76 10  1  0  0  0  0
 77 11  1  0  0  0  0
 78 12  1  0  0  0  0
 81 19  1  0  0  0  0
 82 20  1  0  0  0  0
 83 21  1  0  0  0  0
 84 23  1  0  0  0  0
 89 30  1  0  0  0  0
 90 31  1  0  0  0  0
 94 37  1  0  0  0  0
 97 47  1  0  0  0  0
 98 48  1  0  0  0  0
 99 52  1  0  0  0  0
100 53  1  0  0  0  0
101 55  1  0  0  0  0
102 56  1  0  0  0  0
108 65  1  0  0  0  0
109 66  1  0  0  0  0
111 70  1  0  0  0  0
M  END
$$$$
