O=P1(O)OC2=C(C3=CC(C4=C(C)C=C(C)C=C4C)=CC(C5=C(C)C=C(C)C=C5C)=C3)C=C6C(CCCC6)=C2C7=C(O1)C(C8=CC(C9=C(C)C=C(C)C=C9C)=CC(C%10=C(C)C=C(C)C=C%10C)=C8)=CC%11=C7CCCC%11
 OpenBabel09032010383D

142152  0  0  0  0  0  0  0  0999 V2000
   -0.4307   -0.7673   -1.5351 O   0  0  0  0  0  0  0  0  0  0  0  0
    0.1370   -0.3109   -0.2284 P   0  0  0  0  0  0  0  0  0  0  0  0
    0.7759    1.1626   -0.3456 O   0  0  0  0  0  0  0  0  0  0  0  0
   -0.8826   -0.1828    1.0131 O   0  0  0  0  0  0  0  0  0  0  0  0
   -1.2447   -1.3543    1.6459 C   0  0  0  0  0  0  0  0  0  0  0  0
   -2.5689   -1.7980    1.4738 C   0  0  0  0  0  0  0  0  0  0  0  0
   -3.5552   -1.0446    0.6771 C   0  0  0  0  0  0  0  0  0  0  0  0
   -4.2279   -1.6513   -0.3955 C   0  0  0  0  0  0  0  0  0  0  0  0
   -5.1430   -0.9401   -1.1878 C   0  0  0  0  0  0  0  0  0  0  0  0
   -5.8309   -1.5984   -2.3115 C   0  0  0  0  0  0  0  0  0  0  0  0
   -5.2280   -1.6555   -3.5923 C   0  0  0  0  0  0  0  0  0  0  0  0
   -3.8659   -1.0600   -3.8471 C   0  0  0  0  0  0  0  0  0  0  0  0
   -5.8968   -2.2907   -4.6528 C   0  0  0  0  0  0  0  0  0  0  0  0
   -7.1592   -2.8601   -4.4724 C   0  0  0  0  0  0  0  0  0  0  0  0
   -7.8461   -3.5624   -5.6061 C   0  0  0  0  0  0  0  0  0  0  0  0
   -7.7471   -2.8162   -3.2059 C   0  0  0  0  0  0  0  0  0  0  0  0
   -7.1036   -2.1906   -2.1255 C   0  0  0  0  0  0  0  0  0  0  0  0
   -7.7949   -2.1669   -0.7862 C   0  0  0  0  0  0  0  0  0  0  0  0
   -5.3801    0.4105   -0.8970 C   0  0  0  0  0  0  0  0  0  0  0  0
   -4.7280    1.0484    0.1666 C   0  0  0  0  0  0  0  0  0  0  0  0
   -4.9564    2.4775    0.4422 C   0  0  0  0  0  0  0  0  0  0  0  0
   -6.0577    2.8954    1.2280 C   0  0  0  0  0  0  0  0  0  0  0  0
   -7.0344    1.9023    1.8037 C   0  0  0  0  0  0  0  0  0  0  0  0
   -6.2617    4.2640    1.4742 C   0  0  0  0  0  0  0  0  0  0  0  0
   -5.3820    5.2279    0.9745 C   0  0  0  0  0  0  0  0  0  0  0  0
   -5.6314    6.6863    1.2223 C   0  0  0  0  0  0  0  0  0  0  0  0
   -4.2998    4.8168    0.1926 C   0  0  0  0  0  0  0  0  0  0  0  0
   -4.0747    3.4568   -0.0794 C   0  0  0  0  0  0  0  0  0  0  0  0
   -2.8821    3.0746   -0.9201 C   0  0  0  0  0  0  0  0  0  0  0  0
   -3.8311    0.3054    0.9494 C   0  0  0  0  0  0  0  0  0  0  0  0
   -2.9246   -3.0045    2.0825 C   0  0  0  0  0  0  0  0  0  0  0  0
   -1.9866   -3.7782    2.7818 C   0  0  0  0  0  0  0  0  0  0  0  0
   -0.6618   -3.3057    2.9461 C   0  0  0  0  0  0  0  0  0  0  0  0
    0.3920   -4.2780    3.4617 C   0  0  0  0  0  0  0  0  0  0  0  0
   -0.1754   -5.3642    4.3707 C   0  0  0  0  0  0  0  0  0  0  0  0
   -1.3299   -6.0677    3.6759 C   0  0  0  0  0  0  0  0  0  0  0  0
   -2.4554   -5.0820    3.3877 C   0  0  0  0  0  0  0  0  0  0  0  0
   -0.2791   -2.0268    2.4370 C   0  0  0  0  0  0  0  0  0  0  0  0
    0.9943   -1.4063    2.6923 C   0  0  0  0  0  0  0  0  0  0  0  0
    1.8098   -0.9794    1.6170 C   0  0  0  0  0  0  0  0  0  0  0  0
    1.3677   -1.1904    0.3276 O   0  0  0  0  0  0  0  0  0  0  0  0
    3.0708   -0.3709    1.7747 C   0  0  0  0  0  0  0  0  0  0  0  0
    3.8416    0.1338    0.6229 C   0  0  0  0  0  0  0  0  0  0  0  0
    4.1617   -0.6957   -0.4618 C   0  0  0  0  0  0  0  0  0  0  0  0
    4.7721   -0.1913   -1.6200 C   0  0  0  0  0  0  0  0  0  0  0  0
    5.0102   -1.0698   -2.7776 C   0  0  0  0  0  0  0  0  0  0  0  0
    3.9428   -1.4126   -3.6452 C   0  0  0  0  0  0  0  0  0  0  0  0
    2.5368   -0.9185   -3.4192 C   0  0  0  0  0  0  0  0  0  0  0  0
    4.1722   -2.2743   -4.7283 C   0  0  0  0  0  0  0  0  0  0  0  0
    5.4486   -2.7757   -4.9959 C   0  0  0  0  0  0  0  0  0  0  0  0
    5.6711   -3.7133   -6.1451 C   0  0  0  0  0  0  0  0  0  0  0  0
    6.5013   -2.4394   -4.1410 C   0  0  0  0  0  0  0  0  0  0  0  0
    6.2988   -1.5981   -3.0337 C   0  0  0  0  0  0  0  0  0  0  0  0
    7.4746   -1.2764   -2.1471 C   0  0  0  0  0  0  0  0  0  0  0  0
    5.1072    1.1689   -1.6673 C   0  0  0  0  0  0  0  0  0  0  0  0
    4.8392    2.0205   -0.5870 C   0  0  0  0  0  0  0  0  0  0  0  0
    5.1946    3.4493   -0.6484 C   0  0  0  0  0  0  0  0  0  0  0  0
    6.5126    3.8746   -0.3499 C   0  0  0  0  0  0  0  0  0  0  0  0
    7.5906    2.8926    0.0337 C   0  0  0  0  0  0  0  0  0  0  0  0
    6.8398    5.2397   -0.4164 C   0  0  0  0  0  0  0  0  0  0  0  0
    5.8856    6.1959   -0.7713 C   0  0  0  0  0  0  0  0  0  0  0  0
    6.2413    7.6529   -0.7976 C   0  0  0  0  0  0  0  0  0  0  0  0
    4.5802    5.7802   -1.0432 C   0  0  0  0  0  0  0  0  0  0  0  0
    4.2249    4.4211   -0.9991 C   0  0  0  0  0  0  0  0  0  0  0  0
    2.7969    4.0434   -1.3005 C   0  0  0  0  0  0  0  0  0  0  0  0
    4.2039    1.4894    0.5464 C   0  0  0  0  0  0  0  0  0  0  0  0
    3.5397   -0.1914    3.0776 C   0  0  0  0  0  0  0  0  0  0  0  0
    2.7654   -0.5486    4.1920 C   0  0  0  0  0  0  0  0  0  0  0  0
    1.4792   -1.1108    4.0075 C   0  0  0  0  0  0  0  0  0  0  0  0
    0.5827   -1.3207    5.2232 C   0  0  0  0  0  0  0  0  0  0  0  0
    1.0259   -0.5489    6.4649 C   0  0  0  0  0  0  0  0  0  0  0  0
    2.5061   -0.7833    6.7135 C   0  0  0  0  0  0  0  0  0  0  0  0
    3.3195   -0.2131    5.5586 C   0  0  0  0  0  0  0  0  0  0  0  0
    1.3889    1.2000   -1.1026 H   0  0  0  0  0  0  0  0  0  0  0  0
   -4.0215   -2.6925   -0.6411 H   0  0  0  0  0  0  0  0  0  0  0  0
   -3.8551    0.0035   -3.5880 H   0  0  0  0  0  0  0  0  0  0  0  0
   -3.1038   -1.5891   -3.2665 H   0  0  0  0  0  0  0  0  0  0  0  0
   -3.5867   -1.1369   -4.9035 H   0  0  0  0  0  0  0  0  0  0  0  0
   -5.4260   -2.3401   -5.6331 H   0  0  0  0  0  0  0  0  0  0  0  0
   -7.5580   -4.6181   -5.6216 H   0  0  0  0  0  0  0  0  0  0  0  0
   -7.5794   -3.1083   -6.5662 H   0  0  0  0  0  0  0  0  0  0  0  0
   -8.9345   -3.4937   -5.5065 H   0  0  0  0  0  0  0  0  0  0  0  0
   -8.7219   -3.2756   -3.0563 H   0  0  0  0  0  0  0  0  0  0  0  0
   -8.7498   -2.7026   -0.8180 H   0  0  0  0  0  0  0  0  0  0  0  0
   -7.1763   -2.6537   -0.0256 H   0  0  0  0  0  0  0  0  0  0  0  0
   -8.0086   -1.1367   -0.4843 H   0  0  0  0  0  0  0  0  0  0  0  0
   -6.0751    0.9765   -1.5158 H   0  0  0  0  0  0  0  0  0  0  0  0
   -6.5132    1.1573    2.4135 H   0  0  0  0  0  0  0  0  0  0  0  0
   -7.7681    2.3923    2.4529 H   0  0  0  0  0  0  0  0  0  0  0  0
   -7.5864    1.4019    1.0020 H   0  0  0  0  0  0  0  0  0  0  0  0
   -7.1176    4.5816    2.0671 H   0  0  0  0  0  0  0  0  0  0  0  0
   -4.6900    7.2452    1.2469 H   0  0  0  0  0  0  0  0  0  0  0  0
   -6.1245    6.8399    2.1879 H   0  0  0  0  0  0  0  0  0  0  0  0
   -6.2663    7.0968    0.4312 H   0  0  0  0  0  0  0  0  0  0  0  0
   -3.6213    5.5646   -0.2136 H   0  0  0  0  0  0  0  0  0  0  0  0
   -2.3668    3.9593   -1.3094 H   0  0  0  0  0  0  0  0  0  0  0  0
   -3.1928    2.4784   -1.7840 H   0  0  0  0  0  0  0  0  0  0  0  0
   -2.1596    2.5099   -0.3226 H   0  0  0  0  0  0  0  0  0  0  0  0
   -3.3218    0.8012    1.7757 H   0  0  0  0  0  0  0  0  0  0  0  0
   -3.9482   -3.3663    1.9881 H   0  0  0  0  0  0  0  0  0  0  0  0
    0.8492   -4.7516    2.5823 H   0  0  0  0  0  0  0  0  0  0  0  0
    1.2039   -3.7810    3.9938 H   0  0  0  0  0  0  0  0  0  0  0  0
   -0.5174   -4.9262    5.3166 H   0  0  0  0  0  0  0  0  0  0  0  0
    0.6106   -6.0882    4.6129 H   0  0  0  0  0  0  0  0  0  0  0  0
   -1.7060   -6.8868    4.2990 H   0  0  0  0  0  0  0  0  0  0  0  0
   -0.9770   -6.5145    2.7378 H   0  0  0  0  0  0  0  0  0  0  0  0
   -2.9785   -4.8460    4.3231 H   0  0  0  0  0  0  0  0  0  0  0  0
   -3.1793   -5.5667    2.7213 H   0  0  0  0  0  0  0  0  0  0  0  0
    3.8993   -1.7533   -0.4247 H   0  0  0  0  0  0  0  0  0  0  0  0
    1.9129   -1.0695   -4.3069 H   0  0  0  0  0  0  0  0  0  0  0  0
    2.5238    0.1550   -3.2061 H   0  0  0  0  0  0  0  0  0  0  0  0
    2.0808   -1.4656   -2.5894 H   0  0  0  0  0  0  0  0  0  0  0  0
    3.3430   -2.5547   -5.3752 H   0  0  0  0  0  0  0  0  0  0  0  0
    5.5154   -4.7467   -5.8204 H   0  0  0  0  0  0  0  0  0  0  0  0
    4.9832   -3.4932   -6.9682 H   0  0  0  0  0  0  0  0  0  0  0  0
    6.6884   -3.6151   -6.5384 H   0  0  0  0  0  0  0  0  0  0  0  0
    7.4935   -2.8434   -4.3357 H   0  0  0  0  0  0  0  0  0  0  0  0
    8.3517   -1.8768   -2.4121 H   0  0  0  0  0  0  0  0  0  0  0  0
    7.2423   -1.4958   -1.1001 H   0  0  0  0  0  0  0  0  0  0  0  0
    7.7513   -0.2226   -2.2504 H   0  0  0  0  0  0  0  0  0  0  0  0
    5.5770    1.5732   -2.5635 H   0  0  0  0  0  0  0  0  0  0  0  0
    8.5114    3.4051    0.3327 H   0  0  0  0  0  0  0  0  0  0  0  0
    7.2728    2.2827    0.8853 H   0  0  0  0  0  0  0  0  0  0  0  0
    7.8342    2.2446   -0.8140 H   0  0  0  0  0  0  0  0  0  0  0  0
    7.8538    5.5613   -0.1849 H   0  0  0  0  0  0  0  0  0  0  0  0
    7.2907    7.7941   -1.0773 H   0  0  0  0  0  0  0  0  0  0  0  0
    6.0750    8.0965    0.1888 H   0  0  0  0  0  0  0  0  0  0  0  0
    5.6349    8.1902   -1.5344 H   0  0  0  0  0  0  0  0  0  0  0  0
    3.8264    6.5240   -1.2958 H   0  0  0  0  0  0  0  0  0  0  0  0
    2.2375    4.8902   -1.7126 H   0  0  0  0  0  0  0  0  0  0  0  0
    2.2900    3.7232   -0.3850 H   0  0  0  0  0  0  0  0  0  0  0  0
    2.7542    3.2428   -2.0458 H   0  0  0  0  0  0  0  0  0  0  0  0
    3.9572    2.1595    1.3701 H   0  0  0  0  0  0  0  0  0  0  0  0
    4.5137    0.2714    3.2351 H   0  0  0  0  0  0  0  0  0  0  0  0
    0.5625   -2.3832    5.4808 H   0  0  0  0  0  0  0  0  0  0  0  0
   -0.4422   -1.0097    4.9891 H   0  0  0  0  0  0  0  0  0  0  0  0
    0.4399   -0.8781    7.3304 H   0  0  0  0  0  0  0  0  0  0  0  0
    0.8330    0.5233    6.3332 H   0  0  0  0  0  0  0  0  0  0  0  0
    2.6996   -1.8587    6.8149 H   0  0  0  0  0  0  0  0  0  0  0  0
    2.8157   -0.3113    7.6525 H   0  0  0  0  0  0  0  0  0  0  0  0
    3.3478    0.8804    5.6508 H   0  0  0  0  0  0  0  0  0  0  0  0
    4.3506   -0.5779    5.6383 H   0  0  0  0  0  0  0  0  0  0  0  0
  1  2  2  0  0  0  0
  2 41  1  0  0  0  0
  2  4  1  0  0  0  0
  3  2  1  0  0  0  0
  4  5  1  0  0  0  0
  5 38  1  0  0  0  0
  6  5  2  0  0  0  0
  6 31  1  0  0  0  0
  7 30  1  0  0  0  0
  7  6  1  0  0  0  0
  8  7  2  0  0  0  0
  9 19  2  0  0  0  0
  9  8  1  0  0  0  0
 10 17  1  0  0  0  0
 10  9  1  0  0  0  0
 11 10  2  0  0  0  0
 12 11  1  0  0  0  0
 12 76  1  0  0  0  0
 12 77  1  0  0  0  0
 13 14  2  0  0  0  0
 13 11  1  0  0  0  0
 14 16  1  0  0  0  0
 15 82  1  0  0  0  0
 15 14  1  0  0  0  0
 16 83  1  0  0  0  0
 16 17  2  0  0  0  0
 17 18  1  0  0  0  0
 18 86  1  0  0  0  0
 18 85  1  0  0  0  0
 19 20  1  0  0  0  0
 20 21  1  0  0  0  0
 20 30  2  0  0  0  0
 21 22  2  0  0  0  0
 22 24  1  0  0  0  0
 22 23  1  0  0  0  0
 23 88  1  0  0  0  0
 23 89  1  0  0  0  0
 24 91  1  0  0  0  0
 25 26  1  0  0  0  0
 25 24  2  0  0  0  0
 26 92  1  0  0  0  0
 26 93  1  0  0  0  0
 27 25  1  0  0  0  0
 28 27  2  0  0  0  0
 28 21  1  0  0  0  0
 29 98  1  0  0  0  0
 29 28  1  0  0  0  0
 30 99  1  0  0  0  0
 31 32  2  0  0  0  0
 32 33  1  0  0  0  0
 32 37  1  0  0  0  0
 33 34  1  0  0  0  0
 34102  1  0  0  0  0
 34 35  1  0  0  0  0
 35104  1  0  0  0  0
 35103  1  0  0  0  0
 36105  1  0  0  0  0
 36 35  1  0  0  0  0
 37 36  1  0  0  0  0
 37107  1  0  0  0  0
 38 39  1  0  0  0  0
 38 33  2  0  0  0  0
 39 69  2  0  0  0  0
 40 42  2  0  0  0  0
 40 39  1  0  0  0  0
 41 40  1  0  0  0  0
 42 67  1  0  0  0  0
 43 42  1  0  0  0  0
 44109  1  0  0  0  0
 44 43  2  0  0  0  0
 45 44  1  0  0  0  0
 46 45  1  0  0  0  0
 47 48  1  0  0  0  0
 47 46  2  0  0  0  0
 48111  1  0  0  0  0
 48112  1  0  0  0  0
 49 47  1  0  0  0  0
 50 49  2  0  0  0  0
 50 52  1  0  0  0  0
 51114  1  0  0  0  0
 51 50  1  0  0  0  0
 52 53  2  0  0  0  0
 53 46  1  0  0  0  0
 53 54  1  0  0  0  0
 54119  1  0  0  0  0
 55 45  2  0  0  0  0
 55 56  1  0  0  0  0
 56 66  2  0  0  0  0
 57 56  1  0  0  0  0
 57 58  2  0  0  0  0
 58 59  1  0  0  0  0
 59122  1  0  0  0  0
 59123  1  0  0  0  0
 60 58  1  0  0  0  0
 60125  1  0  0  0  0
 61 60  2  0  0  0  0
 62 61  1  0  0  0  0
 62127  1  0  0  0  0
 63 64  2  0  0  0  0
 63 61  1  0  0  0  0
 64 57  1  0  0  0  0
 65 64  1  0  0  0  0
 65131  1  0  0  0  0
 66 43  1  0  0  0  0
 66133  1  0  0  0  0
 67134  1  0  0  0  0
 67 68  2  0  0  0  0
 68 73  1  0  0  0  0
 69 68  1  0  0  0  0
 69 70  1  0  0  0  0
 70135  1  0  0  0  0
 70 71  1  0  0  0  0
 71 72  1  0  0  0  0
 71137  1  0  0  0  0
 72139  1  0  0  0  0
 72140  1  0  0  0  0
 73142  1  0  0  0  0
 73141  1  0  0  0  0
 73 72  1  0  0  0  0
 74  3  1  0  0  0  0
 75  8  1  0  0  0  0
 78 12  1  0  0  0  0
 79 13  1  0  0  0  0
 80 15  1  0  0  0  0
 81 15  1  0  0  0  0
 84 18  1  0  0  0  0
 87 19  1  0  0  0  0
 90 23  1  0  0  0  0
 94 26  1  0  0  0  0
 95 27  1  0  0  0  0
 96 29  1  0  0  0  0
 97 29  1  0  0  0  0
100 31  1  0  0  0  0
101 34  1  0  0  0  0
106 36  1  0  0  0  0
108 37  1  0  0  0  0
110 48  1  0  0  0  0
113 49  1  0  0  0  0
115 51  1  0  0  0  0
116 51  1  0  0  0  0
117 52  1  0  0  0  0
118 54  1  0  0  0  0
120 54  1  0  0  0  0
121 55  1  0  0  0  0
124 59  1  0  0  0  0
126 62  1  0  0  0  0
128 62  1  0  0  0  0
129 63  1  0  0  0  0
130 65  1  0  0  0  0
132 65  1  0  0  0  0
136 70  1  0  0  0  0
138 71  1  0  0  0  0
M  END
$$$$
