O=P1(O)OC2=C(C3=CC=C(OC)C=C3)C=C4C(C=CC=C4)=C2C5=C(O1)C(C6=CC=C(OC)C=C6)=CC7=C5C=CC=C7
 OpenBabel09032010383D

 66 72  0  0  0  0  0  0  0  0999 V2000
    0.1504    2.8545    0.5864 O   0  0  0  0  0  0  0  0  0  0  0  0
   -0.2114    1.6212   -0.1806 P   0  0  0  0  0  0  0  0  0  0  0  0
   -0.9453    1.9817   -1.5661 O   0  0  0  0  0  0  0  0  0  0  0  0
    1.0071    0.6698   -0.6342 O   0  0  0  0  0  0  0  0  0  0  0  0
    1.5244   -0.1840    0.3157 C   0  0  0  0  0  0  0  0  0  0  0  0
    2.8272    0.0815    0.7689 C   0  0  0  0  0  0  0  0  0  0  0  0
    3.6234    1.2052    0.2611 C   0  0  0  0  0  0  0  0  0  0  0  0
    4.5439    1.0144   -0.7797 C   0  0  0  0  0  0  0  0  0  0  0  0
    5.3158    2.0774   -1.2650 C   0  0  0  0  0  0  0  0  0  0  0  0
    5.1782    3.3511   -0.7151 C   0  0  0  0  0  0  0  0  0  0  0  0
    5.8663    4.4708   -1.0934 O   0  0  0  0  0  0  0  0  0  0  0  0
    6.7843    4.3279   -2.1696 C   0  0  0  0  0  0  0  0  0  0  0  0
    4.2644    3.5485    0.3215 C   0  0  0  0  0  0  0  0  0  0  0  0
    3.4943    2.4876    0.8074 C   0  0  0  0  0  0  0  0  0  0  0  0
    3.3758   -0.7746    1.7245 C   0  0  0  0  0  0  0  0  0  0  0  0
    2.6483   -1.8493    2.2433 C   0  0  0  0  0  0  0  0  0  0  0  0
    1.3353   -2.1175    1.7709 C   0  0  0  0  0  0  0  0  0  0  0  0
    0.6400   -3.1714    2.4175 C   0  0  0  0  0  0  0  0  0  0  0  0
    1.2221   -3.9527    3.4192 C   0  0  0  0  0  0  0  0  0  0  0  0
    2.5213   -3.6964    3.8261 C   0  0  0  0  0  0  0  0  0  0  0  0
    3.2265   -2.6465    3.2456 C   0  0  0  0  0  0  0  0  0  0  0  0
    0.7595   -1.3053    0.7273 C   0  0  0  0  0  0  0  0  0  0  0  0
   -0.5120   -1.5886    0.0903 C   0  0  0  0  0  0  0  0  0  0  0  0
   -1.5162   -0.5904    0.0293 C   0  0  0  0  0  0  0  0  0  0  0  0
   -1.2645    0.6551    0.5615 O   0  0  0  0  0  0  0  0  0  0  0  0
   -2.8061   -0.8003   -0.4914 C   0  0  0  0  0  0  0  0  0  0  0  0
   -3.8214    0.2646   -0.5263 C   0  0  0  0  0  0  0  0  0  0  0  0
   -4.3530    0.8017    0.6555 C   0  0  0  0  0  0  0  0  0  0  0  0
   -5.3062    1.8275    0.6208 C   0  0  0  0  0  0  0  0  0  0  0  0
   -5.7459    2.3339   -0.6010 C   0  0  0  0  0  0  0  0  0  0  0  0
   -6.6627    3.3326   -0.7769 O   0  0  0  0  0  0  0  0  0  0  0  0
   -7.2284    3.9008    0.3979 C   0  0  0  0  0  0  0  0  0  0  0  0
   -5.2258    1.8042   -1.7830 C   0  0  0  0  0  0  0  0  0  0  0  0
   -4.2748    0.7805   -1.7485 C   0  0  0  0  0  0  0  0  0  0  0  0
   -3.1038   -2.0643   -1.0021 C   0  0  0  0  0  0  0  0  0  0  0  0
   -2.1473   -3.0831   -1.0327 C   0  0  0  0  0  0  0  0  0  0  0  0
   -0.8432   -2.8565   -0.5148 C   0  0  0  0  0  0  0  0  0  0  0  0
    0.0881   -3.9130   -0.6861 C   0  0  0  0  0  0  0  0  0  0  0  0
   -0.2591   -5.1373   -1.2637 C   0  0  0  0  0  0  0  0  0  0  0  0
   -1.5529   -5.3458   -1.7123 C   0  0  0  0  0  0  0  0  0  0  0  0
   -2.4882   -4.3212   -1.6037 C   0  0  0  0  0  0  0  0  0  0  0  0
   -1.5588    2.7279   -1.4369 H   0  0  0  0  0  0  0  0  0  0  0  0
    4.6615    0.0287   -1.2258 H   0  0  0  0  0  0  0  0  0  0  0  0
    6.0100    1.8730   -2.0725 H   0  0  0  0  0  0  0  0  0  0  0  0
    7.5904    3.6334   -1.9107 H   0  0  0  0  0  0  0  0  0  0  0  0
    6.2731    4.0170   -3.0867 H   0  0  0  0  0  0  0  0  0  0  0  0
    7.2359    5.3070   -2.3560 H   0  0  0  0  0  0  0  0  0  0  0  0
    4.1435    4.5385    0.7543 H   0  0  0  0  0  0  0  0  0  0  0  0
    2.7846    2.6754    1.6111 H   0  0  0  0  0  0  0  0  0  0  0  0
    4.3845   -0.5766    2.0867 H   0  0  0  0  0  0  0  0  0  0  0  0
   -0.3922   -3.3956    2.1536 H   0  0  0  0  0  0  0  0  0  0  0  0
    0.6519   -4.7549    3.8802 H   0  0  0  0  0  0  0  0  0  0  0  0
    2.9809   -4.2989    4.6049 H   0  0  0  0  0  0  0  0  0  0  0  0
    4.2372   -2.4447    3.5961 H   0  0  0  0  0  0  0  0  0  0  0  0
   -4.0206    0.4226    1.6209 H   0  0  0  0  0  0  0  0  0  0  0  0
   -5.6797    2.2053    1.5666 H   0  0  0  0  0  0  0  0  0  0  0  0
   -7.9379    4.6737    0.0871 H   0  0  0  0  0  0  0  0  0  0  0  0
   -7.7828    3.1508    0.9716 H   0  0  0  0  0  0  0  0  0  0  0  0
   -6.4603    4.3816    1.0127 H   0  0  0  0  0  0  0  0  0  0  0  0
   -5.5619    2.1919   -2.7415 H   0  0  0  0  0  0  0  0  0  0  0  0
   -3.8785    0.3960   -2.6866 H   0  0  0  0  0  0  0  0  0  0  0  0
   -4.1005   -2.2471   -1.4031 H   0  0  0  0  0  0  0  0  0  0  0  0
    1.1251   -3.7911   -0.3782 H   0  0  0  0  0  0  0  0  0  0  0  0
    0.4887   -5.9194   -1.3651 H   0  0  0  0  0  0  0  0  0  0  0  0
   -1.8307   -6.2944   -2.1633 H   0  0  0  0  0  0  0  0  0  0  0  0
   -3.4923   -4.4945   -1.9869 H   0  0  0  0  0  0  0  0  0  0  0  0
  2 25  1  0  0  0  0
  2  1  2  0  0  0  0
  3 42  1  0  0  0  0
  3  2  1  0  0  0  0
  4  2  1  0  0  0  0
  4  5  1  0  0  0  0
  5 22  2  0  0  0  0
  5  6  1  0  0  0  0
  6 15  2  0  0  0  0
  7  6  1  0  0  0  0
  7 14  2  0  0  0  0
  8  7  1  0  0  0  0
  9  8  2  0  0  0  0
  9 10  1  0  0  0  0
 10 13  2  0  0  0  0
 11 10  1  0  0  0  0
 12 45  1  0  0  0  0
 12 11  1  0  0  0  0
 13 48  1  0  0  0  0
 13 14  1  0  0  0  0
 14 49  1  0  0  0  0
 15 50  1  0  0  0  0
 15 16  1  0  0  0  0
 16 21  1  0  0  0  0
 17 16  2  0  0  0  0
 17 18  1  0  0  0  0
 18 19  2  0  0  0  0
 19 20  1  0  0  0  0
 19 52  1  0  0  0  0
 20 53  1  0  0  0  0
 21 54  1  0  0  0  0
 21 20  2  0  0  0  0
 22 17  1  0  0  0  0
 23 22  1  0  0  0  0
 24 23  1  0  0  0  0
 24 25  1  0  0  0  0
 26 24  2  0  0  0  0
 27 26  1  0  0  0  0
 27 28  2  0  0  0  0
 28 55  1  0  0  0  0
 29 28  1  0  0  0  0
 29 56  1  0  0  0  0
 30 29  2  0  0  0  0
 31 30  1  0  0  0  0
 31 32  1  0  0  0  0
 32 58  1  0  0  0  0
 32 59  1  0  0  0  0
 33 34  2  0  0  0  0
 33 30  1  0  0  0  0
 34 27  1  0  0  0  0
 35 26  1  0  0  0  0
 36 35  2  0  0  0  0
 36 37  1  0  0  0  0
 37 23  2  0  0  0  0
 38 37  1  0  0  0  0
 38 63  1  0  0  0  0
 39 38  2  0  0  0  0
 40 41  2  0  0  0  0
 40 39  1  0  0  0  0
 41 36  1  0  0  0  0
 43  8  1  0  0  0  0
 44  9  1  0  0  0  0
 46 12  1  0  0  0  0
 47 12  1  0  0  0  0
 51 18  1  0  0  0  0
 57 32  1  0  0  0  0
 60 33  1  0  0  0  0
 61 34  1  0  0  0  0
 62 35  1  0  0  0  0
 64 39  1  0  0  0  0
 65 40  1  0  0  0  0
 66 41  1  0  0  0  0
M  END
$$$$
