O=P1(O)OC2=C(C3=CC=C(C)C=C3)C=C4C(C=CC=C4)=C2C5=C(O1)C(C6=CC=C(C)C=C6)=CC7=C5C=CC=C7
 OpenBabel09032010373D

 64 70  0  0  0  0  0  0  0  0999 V2000
   -0.5215   -2.8333    0.8783 O   0  0  0  0  0  0  0  0  0  0  0  0
    0.0455   -1.7613    0.0012 P   0  0  0  0  0  0  0  0  0  0  0  0
    0.9019   -2.3804   -1.2125 O   0  0  0  0  0  0  0  0  0  0  0  0
   -1.0094   -0.7918   -0.7358 O   0  0  0  0  0  0  0  0  0  0  0  0
   -1.5402    0.2442    0.0025 C   0  0  0  0  0  0  0  0  0  0  0  0
   -2.9090    0.1716    0.3109 C   0  0  0  0  0  0  0  0  0  0  0  0
   -3.7575   -0.9451   -0.1235 C   0  0  0  0  0  0  0  0  0  0  0  0
   -3.7809   -2.1522    0.5872 C   0  0  0  0  0  0  0  0  0  0  0  0
   -4.5957   -3.2102    0.1745 C   0  0  0  0  0  0  0  0  0  0  0  0
   -5.4168   -3.0774   -0.9500 C   0  0  0  0  0  0  0  0  0  0  0  0
   -6.2625   -4.2258   -1.4131 C   0  0  0  0  0  0  0  0  0  0  0  0
   -5.3898   -1.8791   -1.6709 C   0  0  0  0  0  0  0  0  0  0  0  0
   -4.5723   -0.8228   -1.2583 C   0  0  0  0  0  0  0  0  0  0  0  0
   -3.4718    1.2163    1.0458 C   0  0  0  0  0  0  0  0  0  0  0  0
   -2.6994    2.2913    1.4939 C   0  0  0  0  0  0  0  0  0  0  0  0
   -1.3185    2.3623    1.1683 C   0  0  0  0  0  0  0  0  0  0  0  0
   -0.5944    3.4388    1.7415 C   0  0  0  0  0  0  0  0  0  0  0  0
   -1.2027    4.4192    2.5302 C   0  0  0  0  0  0  0  0  0  0  0  0
   -2.5614    4.3486    2.7912 C   0  0  0  0  0  0  0  0  0  0  0  0
   -3.3028    3.2869    2.2810 C   0  0  0  0  0  0  0  0  0  0  0  0
   -0.7140    1.3468    0.3416 C   0  0  0  0  0  0  0  0  0  0  0  0
    0.6460    1.4153   -0.1568 C   0  0  0  0  0  0  0  0  0  0  0  0
    1.5379    0.3364    0.0601 C   0  0  0  0  0  0  0  0  0  0  0  0
    1.0930   -0.7806    0.7318 O   0  0  0  0  0  0  0  0  0  0  0  0
    2.8933    0.3446   -0.3162 C   0  0  0  0  0  0  0  0  0  0  0  0
    3.7817   -0.8041   -0.0745 C   0  0  0  0  0  0  0  0  0  0  0  0
    4.1060   -1.2120    1.2274 C   0  0  0  0  0  0  0  0  0  0  0  0
    4.9319   -2.3180    1.4491 C   0  0  0  0  0  0  0  0  0  0  0  0
    5.4633   -3.0339    0.3717 C   0  0  0  0  0  0  0  0  0  0  0  0
    6.3233   -4.2395    0.6102 C   0  0  0  0  0  0  0  0  0  0  0  0
    5.1363   -2.6414   -0.9299 C   0  0  0  0  0  0  0  0  0  0  0  0
    4.3098   -1.5359   -1.1493 C   0  0  0  0  0  0  0  0  0  0  0  0
    3.3824    1.4818   -0.9601 C   0  0  0  0  0  0  0  0  0  0  0  0
    2.5509    2.5644   -1.2614 C   0  0  0  0  0  0  0  0  0  0  0  0
    1.1789    2.5376   -0.8914 C   0  0  0  0  0  0  0  0  0  0  0  0
    0.3918    3.6309   -1.3357 C   0  0  0  0  0  0  0  0  0  0  0  0
    0.9321    4.7145   -2.0340 C   0  0  0  0  0  0  0  0  0  0  0  0
    2.2841    4.7358   -2.3337 C   0  0  0  0  0  0  0  0  0  0  0  0
    3.0858    3.6628   -1.9559 C   0  0  0  0  0  0  0  0  0  0  0  0
    1.4686   -3.1036   -0.8874 H   0  0  0  0  0  0  0  0  0  0  0  0
   -3.1516   -2.2834    1.4660 H   0  0  0  0  0  0  0  0  0  0  0  0
   -4.5772   -4.1396    0.7387 H   0  0  0  0  0  0  0  0  0  0  0  0
   -5.6948   -4.8524   -2.1078 H   0  0  0  0  0  0  0  0  0  0  0  0
   -6.5859   -4.8394   -0.5657 H   0  0  0  0  0  0  0  0  0  0  0  0
   -7.1661   -3.8670   -1.9172 H   0  0  0  0  0  0  0  0  0  0  0  0
   -6.0022   -1.7593   -2.5615 H   0  0  0  0  0  0  0  0  0  0  0  0
   -4.5657    0.0994   -1.8358 H   0  0  0  0  0  0  0  0  0  0  0  0
   -4.5319    1.1688    1.2940 H   0  0  0  0  0  0  0  0  0  0  0  0
    0.4802    3.5238    1.5892 H   0  0  0  0  0  0  0  0  0  0  0  0
   -0.6067    5.2297    2.9411 H   0  0  0  0  0  0  0  0  0  0  0  0
   -3.0424    5.1056    3.4043 H   0  0  0  0  0  0  0  0  0  0  0  0
   -4.3641    3.2348    2.5175 H   0  0  0  0  0  0  0  0  0  0  0  0
    3.7090   -0.6692    2.0834 H   0  0  0  0  0  0  0  0  0  0  0  0
    5.1572   -2.6135    2.4715 H   0  0  0  0  0  0  0  0  0  0  0  0
    7.0433   -4.3730   -0.2041 H   0  0  0  0  0  0  0  0  0  0  0  0
    5.6995   -5.1357    0.6816 H   0  0  0  0  0  0  0  0  0  0  0  0
    6.8975   -4.1326    1.5365 H   0  0  0  0  0  0  0  0  0  0  0  0
    5.5227   -3.1920   -1.7847 H   0  0  0  0  0  0  0  0  0  0  0  0
    4.0635   -1.2556   -2.1722 H   0  0  0  0  0  0  0  0  0  0  0  0
    4.4322    1.5095   -1.2510 H   0  0  0  0  0  0  0  0  0  0  0  0
   -0.6812    3.6491   -1.1530 H   0  0  0  0  0  0  0  0  0  0  0  0
    0.2880    5.5324   -2.3456 H   0  0  0  0  0  0  0  0  0  0  0  0
    2.7125    5.5732   -2.8773 H   0  0  0  0  0  0  0  0  0  0  0  0
    4.1404    3.6849   -2.2252 H   0  0  0  0  0  0  0  0  0  0  0  0
  2 24  1  0  0  0  0
  2  1  2  0  0  0  0
  3 40  1  0  0  0  0
  3  2  1  0  0  0  0
  4  2  1  0  0  0  0
  4  5  1  0  0  0  0
  5  6  2  0  0  0  0
  5 21  1  0  0  0  0
  6 14  1  0  0  0  0
  7  6  1  0  0  0  0
  7  8  2  0  0  0  0
  8 41  1  0  0  0  0
  9  8  1  0  0  0  0
  9 42  1  0  0  0  0
 10  9  2  0  0  0  0
 11 10  1  0  0  0  0
 11 44  1  0  0  0  0
 12 13  2  0  0  0  0
 12 10  1  0  0  0  0
 13  7  1  0  0  0  0
 14 48  1  0  0  0  0
 14 15  2  0  0  0  0
 15 20  1  0  0  0  0
 16 15  1  0  0  0  0
 16 17  1  0  0  0  0
 17 18  2  0  0  0  0
 18 19  1  0  0  0  0
 18 50  1  0  0  0  0
 19 51  1  0  0  0  0
 20 52  1  0  0  0  0
 20 19  2  0  0  0  0
 21 16  2  0  0  0  0
 22 23  2  0  0  0  0
 22 21  1  0  0  0  0
 23 24  1  0  0  0  0
 25 26  1  0  0  0  0
 25 23  1  0  0  0  0
 26 27  2  0  0  0  0
 27 28  1  0  0  0  0
 27 53  1  0  0  0  0
 28 54  1  0  0  0  0
 29 30  1  0  0  0  0
 29 28  2  0  0  0  0
 30 56  1  0  0  0  0
 30 57  1  0  0  0  0
 31 29  1  0  0  0  0
 32 31  2  0  0  0  0
 32 26  1  0  0  0  0
 33 25  2  0  0  0  0
 34 33  1  0  0  0  0
 34 35  1  0  0  0  0
 35 22  1  0  0  0  0
 36 61  1  0  0  0  0
 36 35  2  0  0  0  0
 37 36  1  0  0  0  0
 38 37  2  0  0  0  0
 38 39  1  0  0  0  0
 39 34  2  0  0  0  0
 43 11  1  0  0  0  0
 45 11  1  0  0  0  0
 46 12  1  0  0  0  0
 47 13  1  0  0  0  0
 49 17  1  0  0  0  0
 55 30  1  0  0  0  0
 58 31  1  0  0  0  0
 59 32  1  0  0  0  0
 60 33  1  0  0  0  0
 62 37  1  0  0  0  0
 63 38  1  0  0  0  0
 64 39  1  0  0  0  0
M  END
$$$$
