O=P1(O)OC2=C(C3=C(OC)C=CC=C3OC)C=C4C(C=CC=C4)=C2C5=C(O1)[C@@]([C@@]6=C(OC)C=CC=C6OC)=CC7=C5C=CC=C7
 OpenBabel09032010373D

 74 80  0  0  0  0  0  0  0  0999 V2000
    1.1837    2.7213    0.7162 O   0  0  0  0  0  0  0  0  0  0  0  0
    0.3971    1.7833   -0.1462 P   0  0  0  0  0  0  0  0  0  0  0  0
   -0.2585    2.5156   -1.4201 O   0  0  0  0  0  0  0  0  0  0  0  0
    1.2097    0.5718   -0.8240 O   0  0  0  0  0  0  0  0  0  0  0  0
    1.6065   -0.4469    0.0117 C   0  0  0  0  0  0  0  0  0  0  0  0
    2.9829   -0.5647    0.2708 C   0  0  0  0  0  0  0  0  0  0  0  0
    3.9832    0.3375   -0.3401 C   0  0  0  0  0  0  0  0  0  0  0  0
    4.6814    1.2849    0.4387 C   0  0  0  0  0  0  0  0  0  0  0  0
    4.4317    1.3175    1.7904 O   0  0  0  0  0  0  0  0  0  0  0  0
    4.2195    2.6339    2.2976 C   0  0  0  0  0  0  0  0  0  0  0  0
    5.6455    2.1215   -0.1382 C   0  0  0  0  0  0  0  0  0  0  0  0
    5.9124    2.0477   -1.5034 C   0  0  0  0  0  0  0  0  0  0  0  0
    5.2212    1.1358   -2.2963 C   0  0  0  0  0  0  0  0  0  0  0  0
    4.2562    0.2983   -1.7240 C   0  0  0  0  0  0  0  0  0  0  0  0
    3.6128   -0.6398   -2.4974 O   0  0  0  0  0  0  0  0  0  0  0  0
    2.9051   -0.0486   -3.5871 C   0  0  0  0  0  0  0  0  0  0  0  0
    3.3942   -1.5780    1.1393 C   0  0  0  0  0  0  0  0  0  0  0  0
    2.4741   -2.4283    1.7597 C   0  0  0  0  0  0  0  0  0  0  0  0
    1.0881   -2.3073    1.4744 C   0  0  0  0  0  0  0  0  0  0  0  0
    0.2188   -3.1511    2.2116 C   0  0  0  0  0  0  0  0  0  0  0  0
    0.6882   -4.0986    3.1256 C   0  0  0  0  0  0  0  0  0  0  0  0
    2.0498   -4.2249    3.3499 C   0  0  0  0  0  0  0  0  0  0  0  0
    2.9357   -3.3897    2.6751 C   0  0  0  0  0  0  0  0  0  0  0  0
    0.6264   -1.3332    0.5167 C   0  0  0  0  0  0  0  0  0  0  0  0
   -0.7360   -1.2517    0.0282 C   0  0  0  0  0  0  0  0  0  0  0  0
   -1.4562   -0.0275    0.0664 C   0  0  0  0  0  0  0  0  0  0  0  0
   -0.8718    1.1107    0.5830 O   0  0  0  0  0  0  0  0  0  0  0  0
   -2.8045    0.0889   -0.3187 C   0  0  0  0  0  0  0  0  0  0  0  0
   -3.5336    1.3731   -0.2673 C   0  0  0  0  0  0  0  0  0  0  0  0
   -3.5090    2.2520   -1.3777 C   0  0  0  0  0  0  0  0  0  0  0  0
   -2.7506    1.8445   -2.4540 O   0  0  0  0  0  0  0  0  0  0  0  0
   -2.9008    2.5760   -3.6675 C   0  0  0  0  0  0  0  0  0  0  0  0
   -4.1963    3.4674   -1.3224 C   0  0  0  0  0  0  0  0  0  0  0  0
   -4.9226    3.8112   -0.1830 C   0  0  0  0  0  0  0  0  0  0  0  0
   -4.9632    2.9507    0.9132 C   0  0  0  0  0  0  0  0  0  0  0  0
   -4.2682    1.7384    0.8840 C   0  0  0  0  0  0  0  0  0  0  0  0
   -4.2805    0.8301    1.9147 O   0  0  0  0  0  0  0  0  0  0  0  0
   -4.5981    1.3326    3.2066 C   0  0  0  0  0  0  0  0  0  0  0  0
   -3.4639   -1.0512   -0.7805 C   0  0  0  0  0  0  0  0  0  0  0  0
   -2.8027   -2.2730   -0.9049 C   0  0  0  0  0  0  0  0  0  0  0  0
   -1.4357   -2.3841   -0.5354 C   0  0  0  0  0  0  0  0  0  0  0  0
   -0.8224   -3.6347   -0.8094 C   0  0  0  0  0  0  0  0  0  0  0  0
   -1.5246   -4.7237   -1.3351 C   0  0  0  0  0  0  0  0  0  0  0  0
   -2.8718   -4.5979   -1.6296 C   0  0  0  0  0  0  0  0  0  0  0  0
   -3.5037   -3.3758   -1.4236 C   0  0  0  0  0  0  0  0  0  0  0  0
   -0.9448    1.9594   -1.8391 H   0  0  0  0  0  0  0  0  0  0  0  0
    3.6903    3.2783    1.5874 H   0  0  0  0  0  0  0  0  0  0  0  0
    3.6064    2.5498    3.1999 H   0  0  0  0  0  0  0  0  0  0  0  0
    5.1757    3.0849    2.5808 H   0  0  0  0  0  0  0  0  0  0  0  0
    6.2084    2.8204    0.4723 H   0  0  0  0  0  0  0  0  0  0  0  0
    6.6686    2.6909   -1.9452 H   0  0  0  0  0  0  0  0  0  0  0  0
    5.4560    1.0649   -3.3539 H   0  0  0  0  0  0  0  0  0  0  0  0
    3.5764    0.1021   -4.4383 H   0  0  0  0  0  0  0  0  0  0  0  0
    2.4237    0.8960   -3.3090 H   0  0  0  0  0  0  0  0  0  0  0  0
    2.1222   -0.7482   -3.8952 H   0  0  0  0  0  0  0  0  0  0  0  0
    4.4572   -1.6771    1.3563 H   0  0  0  0  0  0  0  0  0  0  0  0
   -0.8601   -3.0700    2.0903 H   0  0  0  0  0  0  0  0  0  0  0  0
   -0.0167   -4.7278    3.6621 H   0  0  0  0  0  0  0  0  0  0  0  0
    2.4236   -4.9575    4.0597 H   0  0  0  0  0  0  0  0  0  0  0  0
    4.0003   -3.4851    2.8815 H   0  0  0  0  0  0  0  0  0  0  0  0
   -2.3364    2.0505   -4.4437 H   0  0  0  0  0  0  0  0  0  0  0  0
   -2.4774    3.5808   -3.5713 H   0  0  0  0  0  0  0  0  0  0  0  0
   -3.9486    2.6132   -3.9836 H   0  0  0  0  0  0  0  0  0  0  0  0
   -4.1778    4.1755   -2.1442 H   0  0  0  0  0  0  0  0  0  0  0  0
   -5.4583    4.7569   -0.1477 H   0  0  0  0  0  0  0  0  0  0  0  0
   -5.5521    3.2479    1.7744 H   0  0  0  0  0  0  0  0  0  0  0  0
   -5.6693    1.5416    3.2890 H   0  0  0  0  0  0  0  0  0  0  0  0
   -4.0023    2.2183    3.4526 H   0  0  0  0  0  0  0  0  0  0  0  0
   -4.3547    0.5544    3.9363 H   0  0  0  0  0  0  0  0  0  0  0  0
   -4.5102   -0.9668   -1.0712 H   0  0  0  0  0  0  0  0  0  0  0  0
    0.2407   -3.7805   -0.6252 H   0  0  0  0  0  0  0  0  0  0  0  0
   -1.0082   -5.6627   -1.5153 H   0  0  0  0  0  0  0  0  0  0  0  0
   -3.4259   -5.4388   -2.0370 H   0  0  0  0  0  0  0  0  0  0  0  0
   -4.5559   -3.2854   -1.6873 H   0  0  0  0  0  0  0  0  0  0  0  0
  2 27  1  0  0  0  0
  2  1  2  0  0  0  0
  3  2  1  0  0  0  0
  4  2  1  0  0  0  0
  4  5  1  0  0  0  0
  5  6  2  0  0  0  0
  5 24  1  0  0  0  0
  6 17  1  0  0  0  0
  7  6  1  0  0  0  0
  7  8  2  0  0  0  0
  8  9  1  0  0  0  0
  9 10  1  0  0  0  0
 10 49  1  0  0  0  0
 10 48  1  0  0  0  0
 11  8  1  0  0  0  0
 11 50  1  0  0  0  0
 12 11  2  0  0  0  0
 13 14  2  0  0  0  0
 13 12  1  0  0  0  0
 14  7  1  0  0  0  0
 15 14  1  0  0  0  0
 16 54  1  0  0  0  0
 16 15  1  0  0  0  0
 17 56  1  0  0  0  0
 17 18  2  0  0  0  0
 18 23  1  0  0  0  0
 19 18  1  0  0  0  0
 19 20  1  0  0  0  0
 20 21  2  0  0  0  0
 21 22  1  0  0  0  0
 21 58  1  0  0  0  0
 22 59  1  0  0  0  0
 23 60  1  0  0  0  0
 23 22  2  0  0  0  0
 24 19  2  0  0  0  0
 25 26  1  0  0  0  0
 25 24  1  0  0  0  0
 26 27  1  0  0  0  0
 28 29  1  0  0  0  0
 28 26  2  0  0  0  0
 29 36  2  0  0  0  0
 30 33  2  0  0  0  0
 30 29  1  0  0  0  0
 31 30  1  0  0  0  0
 32 62  1  0  0  0  0
 32 31  1  0  0  0  0
 33 34  1  0  0  0  0
 34 65  1  0  0  0  0
 34 35  2  0  0  0  0
 35 66  1  0  0  0  0
 36 35  1  0  0  0  0
 36 37  1  0  0  0  0
 37 38  1  0  0  0  0
 38 67  1  0  0  0  0
 38 68  1  0  0  0  0
 38 69  1  0  0  0  0
 39 28  1  0  0  0  0
 40 39  2  0  0  0  0
 40 41  1  0  0  0  0
 41 25  2  0  0  0  0
 42 71  1  0  0  0  0
 42 41  1  0  0  0  0
 43 42  2  0  0  0  0
 44 45  2  0  0  0  0
 44 43  1  0  0  0  0
 45 40  1  0  0  0  0
 46  3  1  0  0  0  0
 47 10  1  0  0  0  0
 51 12  1  0  0  0  0
 52 13  1  0  0  0  0
 53 16  1  0  0  0  0
 55 16  1  0  0  0  0
 57 20  1  0  0  0  0
 61 32  1  0  0  0  0
 63 32  1  0  0  0  0
 64 33  1  0  0  0  0
 70 39  1  0  0  0  0
 72 43  1  0  0  0  0
 73 44  1  0  0  0  0
 74 45  1  0  0  0  0
M  END
$$$$
