O=P1(O)OC2=C(C3=CC(C4=CC(C(F)(F)F)=CC(C(F)(F)F)=C4)=CC(C5=CC(C(F)(F)F)=CC(C(F)(F)F)=C5)=C3)C=C6C(C=CC=C6)=C2C7=C(O1)C(C8=CC(C9=CC(C(F)(F)F)=CC(C(F)(F)F)=C9)=CC(C%10=CC(C(F)(F)F)=CC(C(F)(F)F)=C%10)=C8)=CC%11=C7C=CC=C%11
 OpenBabel09032010373D

122131  0  0  0  0  0  0  0  0999 V2000
    0.3298   -0.1316   -1.4854 O   0  0  0  0  0  0  0  0  0  0  0  0
   -0.0287    0.5002   -0.1728 P   0  0  0  0  0  0  0  0  0  0  0  0
   -1.0185   -0.3833    0.7409 O   0  0  0  0  0  0  0  0  0  0  0  0
    1.1900    0.7753    0.8430 O   0  0  0  0  0  0  0  0  0  0  0  0
    2.0031    1.8508    0.5682 C   0  0  0  0  0  0  0  0  0  0  0  0
    3.3115    1.5581    0.1432 C   0  0  0  0  0  0  0  0  0  0  0  0
    3.7763    0.1773   -0.0381 C   0  0  0  0  0  0  0  0  0  0  0  0
    3.6535   -0.4467   -1.2885 C   0  0  0  0  0  0  0  0  0  0  0  0
    4.0260   -1.7852   -1.4919 C   0  0  0  0  0  0  0  0  0  0  0  0
    3.8320   -2.4372   -2.8031 C   0  0  0  0  0  0  0  0  0  0  0  0
    4.8069   -3.2831   -3.3591 C   0  0  0  0  0  0  0  0  0  0  0  0
    4.6216   -3.9111   -4.6053 C   0  0  0  0  0  0  0  0  0  0  0  0
    5.6957   -4.8261   -5.1475 C   0  0  0  0  0  0  0  0  0  0  0  0
    5.9690   -5.8544   -4.2966 F   0  0  0  0  0  0  0  0  0  0  0  0
    6.8767   -4.1792   -5.3447 F   0  0  0  0  0  0  0  0  0  0  0  0
    5.3750   -5.3980   -6.3403 F   0  0  0  0  0  0  0  0  0  0  0  0
    3.4378   -3.6718   -5.3180 C   0  0  0  0  0  0  0  0  0  0  0  0
    2.4442   -2.8340   -4.7922 C   0  0  0  0  0  0  0  0  0  0  0  0
    1.1737   -2.5449   -5.5530 C   0  0  0  0  0  0  0  0  0  0  0  0
    0.0588   -2.6671   -4.7797 F   0  0  0  0  0  0  0  0  0  0  0  0
    0.9796   -3.3700   -6.6187 F   0  0  0  0  0  0  0  0  0  0  0  0
    1.1482   -1.2776   -6.0491 F   0  0  0  0  0  0  0  0  0  0  0  0
    2.6528   -2.2328   -3.5400 C   0  0  0  0  0  0  0  0  0  0  0  0
    4.5620   -2.4839   -0.3966 C   0  0  0  0  0  0  0  0  0  0  0  0
    4.7207   -1.8883    0.8689 C   0  0  0  0  0  0  0  0  0  0  0  0
    5.2864   -2.6541    1.9924 C   0  0  0  0  0  0  0  0  0  0  0  0
    6.3829   -2.1667    2.7211 C   0  0  0  0  0  0  0  0  0  0  0  0
    6.9512   -2.9015    3.7763 C   0  0  0  0  0  0  0  0  0  0  0  0
    8.1222   -2.3414    4.5487 C   0  0  0  0  0  0  0  0  0  0  0  0
    8.9187   -1.5331    3.7960 F   0  0  0  0  0  0  0  0  0  0  0  0
    7.7237   -1.5912    5.6122 F   0  0  0  0  0  0  0  0  0  0  0  0
    8.9391   -3.3065    5.0536 F   0  0  0  0  0  0  0  0  0  0  0  0
    6.3963   -4.1446    4.1174 C   0  0  0  0  0  0  0  0  0  0  0  0
    5.2983   -4.6570    3.4118 C   0  0  0  0  0  0  0  0  0  0  0  0
    4.7080   -6.0078    3.7423 C   0  0  0  0  0  0  0  0  0  0  0  0
    5.2013   -6.5514    4.8885 F   0  0  0  0  0  0  0  0  0  0  0  0
    4.9411   -6.9212    2.7594 F   0  0  0  0  0  0  0  0  0  0  0  0
    3.3565   -5.9614    3.8992 F   0  0  0  0  0  0  0  0  0  0  0  0
    4.7565   -3.9030    2.3558 C   0  0  0  0  0  0  0  0  0  0  0  0
    4.3168   -0.5532    1.0290 C   0  0  0  0  0  0  0  0  0  0  0  0
    4.1645    2.6238   -0.1357 C   0  0  0  0  0  0  0  0  0  0  0  0
    3.7255    3.9468   -0.0372 C   0  0  0  0  0  0  0  0  0  0  0  0
    2.3988    4.2317    0.3883 C   0  0  0  0  0  0  0  0  0  0  0  0
    2.0128    5.5964    0.3492 C   0  0  0  0  0  0  0  0  0  0  0  0
    2.8933    6.6208   -0.0104 C   0  0  0  0  0  0  0  0  0  0  0  0
    4.1956    6.3149   -0.3678 C   0  0  0  0  0  0  0  0  0  0  0  0
    4.6053    4.9851   -0.3885 C   0  0  0  0  0  0  0  0  0  0  0  0
    1.5085    3.1622    0.7752 C   0  0  0  0  0  0  0  0  0  0  0  0
    0.1885    3.3744    1.3532 C   0  0  0  0  0  0  0  0  0  0  0  0
   -0.9689    2.7635    0.7921 C   0  0  0  0  0  0  0  0  0  0  0  0
   -0.8066    1.9090   -0.2849 O   0  0  0  0  0  0  0  0  0  0  0  0
   -2.3047    3.0672    1.1899 C   0  0  0  0  0  0  0  0  0  0  0  0
   -3.5073    2.4541    0.5568 C   0  0  0  0  0  0  0  0  0  0  0  0
   -4.5873    1.9514    1.3150 C   0  0  0  0  0  0  0  0  0  0  0  0
   -5.6171    1.2020    0.7195 C   0  0  0  0  0  0  0  0  0  0  0  0
   -6.7224    0.5919    1.4843 C   0  0  0  0  0  0  0  0  0  0  0  0
   -7.0371   -0.7653    1.2750 C   0  0  0  0  0  0  0  0  0  0  0  0
   -8.1615   -1.3710    1.8466 C   0  0  0  0  0  0  0  0  0  0  0  0
   -8.4820   -2.8050    1.4973 C   0  0  0  0  0  0  0  0  0  0  0  0
   -7.7233   -3.6908    2.1975 F   0  0  0  0  0  0  0  0  0  0  0  0
   -8.2724   -3.0842    0.1801 F   0  0  0  0  0  0  0  0  0  0  0  0
   -9.7783   -3.1384    1.7488 F   0  0  0  0  0  0  0  0  0  0  0  0
   -8.9549   -0.6165    2.7200 C   0  0  0  0  0  0  0  0  0  0  0  0
   -8.6453    0.7281    2.9962 C   0  0  0  0  0  0  0  0  0  0  0  0
   -9.5287    1.5497    3.9110 C   0  0  0  0  0  0  0  0  0  0  0  0
  -10.3987    2.3363    3.2206 F   0  0  0  0  0  0  0  0  0  0  0  0
  -10.2913    0.7933    4.7494 F   0  0  0  0  0  0  0  0  0  0  0  0
   -8.8150    2.3896    4.7111 F   0  0  0  0  0  0  0  0  0  0  0  0
   -7.5332    1.3228    2.3635 C   0  0  0  0  0  0  0  0  0  0  0  0
   -5.5078    0.9072   -0.6515 C   0  0  0  0  0  0  0  0  0  0  0  0
   -4.4182    1.3233   -1.4194 C   0  0  0  0  0  0  0  0  0  0  0  0
   -4.0050    0.5400   -2.6132 C   0  0  0  0  0  0  0  0  0  0  0  0
   -2.6318    0.3198   -2.8083 C   0  0  0  0  0  0  0  0  0  0  0  0
   -2.1181   -0.7185   -3.5842 C   0  0  0  0  0  0  0  0  0  0  0  0
   -0.6229   -0.9864   -3.4831 C   0  0  0  0  0  0  0  0  0  0  0  0
   -0.1695   -1.7091   -4.5517 F   0  0  0  0  0  0  0  0  0  0  0  0
    0.1353    0.1422   -3.4611 F   0  0  0  0  0  0  0  0  0  0  0  0
   -0.2878   -1.7077   -2.3806 F   0  0  0  0  0  0  0  0  0  0  0  0
   -3.0255   -1.5173   -4.2956 C   0  0  0  0  0  0  0  0  0  0  0  0
   -4.4151   -1.2715   -4.2173 C   0  0  0  0  0  0  0  0  0  0  0  0
   -5.4314   -2.1682   -4.9053 C   0  0  0  0  0  0  0  0  0  0  0  0
   -4.9002   -2.8980   -5.9250 F   0  0  0  0  0  0  0  0  0  0  0  0
   -5.9895   -3.0648   -4.0450 F   0  0  0  0  0  0  0  0  0  0  0  0
   -6.4684   -1.4694   -5.4440 F   0  0  0  0  0  0  0  0  0  0  0  0
   -4.8842   -0.2356   -3.3804 C   0  0  0  0  0  0  0  0  0  0  0  0
   -3.5382    2.2410   -0.8293 C   0  0  0  0  0  0  0  0  0  0  0  0
   -2.4621    3.9727    2.2414 C   0  0  0  0  0  0  0  0  0  0  0  0
   -1.3664    4.5297    2.9079 C   0  0  0  0  0  0  0  0  0  0  0  0
   -0.0423    4.2252    2.4936 C   0  0  0  0  0  0  0  0  0  0  0  0
    0.9999    4.7684    3.2893 C   0  0  0  0  0  0  0  0  0  0  0  0
    0.7585    5.6090    4.3795 C   0  0  0  0  0  0  0  0  0  0  0  0
   -0.5432    5.9255    4.7288 C   0  0  0  0  0  0  0  0  0  0  0  0
   -1.5979    5.3835    4.0003 C   0  0  0  0  0  0  0  0  0  0  0  0
   -1.2225    0.0442    1.5908 H   0  0  0  0  0  0  0  0  0  0  0  0
    3.2349    0.1257   -2.1167 H   0  0  0  0  0  0  0  0  0  0  0  0
    5.7408   -3.4573   -2.8229 H   0  0  0  0  0  0  0  0  0  0  0  0
    3.2865   -4.1444   -6.2902 H   0  0  0  0  0  0  0  0  0  0  0  0
    1.8630   -1.5957   -3.1346 H   0  0  0  0  0  0  0  0  0  0  0  0
    4.8542   -3.5254   -0.5253 H   0  0  0  0  0  0  0  0  0  0  0  0
    6.8199   -1.2041    2.4516 H   0  0  0  0  0  0  0  0  0  0  0  0
    6.8291   -4.7202    4.9379 H   0  0  0  0  0  0  0  0  0  0  0  0
    3.8973   -4.3007    1.8134 H   0  0  0  0  0  0  0  0  0  0  0  0
    4.3999   -0.0778    2.0054 H   0  0  0  0  0  0  0  0  0  0  0  0
    5.1778    2.4141   -0.4773 H   0  0  0  0  0  0  0  0  0  0  0  0
    0.9924    5.8886    0.5904 H   0  0  0  0  0  0  0  0  0  0  0  0
    2.5517    7.6529   -0.0149 H   0  0  0  0  0  0  0  0  0  0  0  0
    4.8871    7.1038   -0.6507 H   0  0  0  0  0  0  0  0  0  0  0  0
    5.6248    4.7640   -0.7001 H   0  0  0  0  0  0  0  0  0  0  0  0
   -4.5978    2.0863    2.3952 H   0  0  0  0  0  0  0  0  0  0  0  0
   -6.4026   -1.3681    0.6210 H   0  0  0  0  0  0  0  0  0  0  0  0
   -9.8312   -1.0742    3.1824 H   0  0  0  0  0  0  0  0  0  0  0  0
   -7.3251    2.3785    2.5422 H   0  0  0  0  0  0  0  0  0  0  0  0
   -6.2424    0.2380   -1.0945 H   0  0  0  0  0  0  0  0  0  0  0  0
   -1.9044    0.8984   -2.2523 H   0  0  0  0  0  0  0  0  0  0  0  0
   -2.6548   -2.3526   -4.8906 H   0  0  0  0  0  0  0  0  0  0  0  0
   -5.9604   -0.0974   -3.2841 H   0  0  0  0  0  0  0  0  0  0  0  0
   -2.7519    2.6802   -1.4422 H   0  0  0  0  0  0  0  0  0  0  0  0
   -3.4676    4.2465    2.5611 H   0  0  0  0  0  0  0  0  0  0  0  0
    2.0412    4.5339    3.0738 H   0  0  0  0  0  0  0  0  0  0  0  0
    1.5928    6.0088    4.9504 H   0  0  0  0  0  0  0  0  0  0  0  0
   -0.7408    6.5795    5.5738 H   0  0  0  0  0  0  0  0  0  0  0  0
   -2.6140    5.6286    4.3054 H   0  0  0  0  0  0  0  0  0  0  0  0
  1  2  2  0  0  0  0
  2  3  1  0  0  0  0
  2  4  1  0  0  0  0
  3 94  1  0  0  0  0
  5 48  1  0  0  0  0
  5  4  1  0  0  0  0
  6  5  2  0  0  0  0
  7  6  1  0  0  0  0
  7 40  2  0  0  0  0
  8  7  1  0  0  0  0
  9  8  2  0  0  0  0
  9 24  1  0  0  0  0
 10  9  1  0  0  0  0
 11 96  1  0  0  0  0
 11 10  1  0  0  0  0
 12 11  2  0  0  0  0
 13 12  1  0  0  0  0
 13 14  1  0  0  0  0
 15 13  1  0  0  0  0
 16 13  1  0  0  0  0
 17 18  2  0  0  0  0
 17 12  1  0  0  0  0
 18 23  1  0  0  0  0
 19 18  1  0  0  0  0
 20 76  1  0  0  0  0
 21 19  1  0  0  0  0
 22 19  1  0  0  0  0
 23 98  1  0  0  0  0
 23 10  2  0  0  0  0
 24 25  2  0  0  0  0
 25 40  1  0  0  0  0
 25 26  1  0  0  0  0
 26 39  2  0  0  0  0
 26 27  1  0  0  0  0
 27 28  2  0  0  0  0
 28 33  1  0  0  0  0
 28 29  1  0  0  0  0
 29 32  1  0  0  0  0
 29 31  1  0  0  0  0
 30 29  1  0  0  0  0
 33101  1  0  0  0  0
 34 35  1  0  0  0  0
 34 33  2  0  0  0  0
 35 38  1  0  0  0  0
 35 36  1  0  0  0  0
 37 35  1  0  0  0  0
 39 34  1  0  0  0  0
 40103  1  0  0  0  0
 41 42  2  0  0  0  0
 41  6  1  0  0  0  0
 42 43  1  0  0  0  0
 43 48  2  0  0  0  0
 44 43  1  0  0  0  0
 44105  1  0  0  0  0
 45 44  2  0  0  0  0
 46 45  1  0  0  0  0
 47 46  2  0  0  0  0
 47 42  1  0  0  0  0
 48 49  1  0  0  0  0
 49 89  2  0  0  0  0
 50 52  2  0  0  0  0
 50 49  1  0  0  0  0
 51  2  1  0  0  0  0
 51 50  1  0  0  0  0
 52 87  1  0  0  0  0
 53 52  1  0  0  0  0
 53 54  2  0  0  0  0
 54109  1  0  0  0  0
 55 54  1  0  0  0  0
 55 56  1  0  0  0  0
 56 69  1  0  0  0  0
 57 56  2  0  0  0  0
 57 58  1  0  0  0  0
 58 63  2  0  0  0  0
 59 62  1  0  0  0  0
 59 58  1  0  0  0  0
 59 60  1  0  0  0  0
 61 59  1  0  0  0  0
 63 64  1  0  0  0  0
 63111  1  0  0  0  0
 64 65  1  0  0  0  0
 65 68  1  0  0  0  0
 65 67  1  0  0  0  0
 66 65  1  0  0  0  0
 69112  1  0  0  0  0
 69 64  2  0  0  0  0
 70 55  2  0  0  0  0
 71 86  2  0  0  0  0
 71 70  1  0  0  0  0
 72 71  1  0  0  0  0
 73 72  1  0  0  0  0
 73114  1  0  0  0  0
 74 75  1  0  0  0  0
 74 73  2  0  0  0  0
 75 77  1  0  0  0  0
 75 78  1  0  0  0  0
 79 80  2  0  0  0  0
 79 74  1  0  0  0  0
 80 85  1  0  0  0  0
 81 80  1  0  0  0  0
 81 83  1  0  0  0  0
 82 81  1  0  0  0  0
 84 81  1  0  0  0  0
 85116  1  0  0  0  0
 85 72  2  0  0  0  0
 86 53  1  0  0  0  0
 87118  1  0  0  0  0
 87 88  2  0  0  0  0
 88 93  1  0  0  0  0
 89 88  1  0  0  0  0
 89 90  1  0  0  0  0
 90 91  2  0  0  0  0
 91 92  1  0  0  0  0
 91120  1  0  0  0  0
 92121  1  0  0  0  0
 93122  1  0  0  0  0
 93 92  2  0  0  0  0
 95  8  1  0  0  0  0
 97 17  1  0  0  0  0
 99 24  1  0  0  0  0
100 27  1  0  0  0  0
102 39  1  0  0  0  0
104 41  1  0  0  0  0
106 45  1  0  0  0  0
107 46  1  0  0  0  0
108 47  1  0  0  0  0
110 57  1  0  0  0  0
113 70  1  0  0  0  0
115 79  1  0  0  0  0
117 86  1  0  0  0  0
119 90  1  0  0  0  0
M  RAD  2  19   2  75   2
M  END
$$$$
