O=P1(O)OC2=C(C3=CC=C(C)C=C3)C=C4C(C=CC=C4)=C2C5=C(O1)C(C6=CC=C(C)C=C6)=CC7=C5C=CC=C7
 OpenBabel09032010373D

 64 70  0  0  0  0  0  0  0  0999 V2000
   -0.5276   -2.8348    0.8791 O   0  0  0  0  0  0  0  0  0  0  0  0
    0.0409   -1.7636    0.0019 P   0  0  0  0  0  0  0  0  0  0  0  0
    0.8975   -2.3833   -1.2112 O   0  0  0  0  0  0  0  0  0  0  0  0
   -1.0127   -0.7930   -0.7357 O   0  0  0  0  0  0  0  0  0  0  0  0
   -1.5429    0.2436    0.0021 C   0  0  0  0  0  0  0  0  0  0  0  0
   -2.9119    0.1723    0.3099 C   0  0  0  0  0  0  0  0  0  0  0  0
   -3.7612   -0.9437   -0.1247 C   0  0  0  0  0  0  0  0  0  0  0  0
   -3.7860   -2.1507    0.5861 C   0  0  0  0  0  0  0  0  0  0  0  0
   -4.6017   -3.2080    0.1733 C   0  0  0  0  0  0  0  0  0  0  0  0
   -5.4222   -3.0746   -0.9515 C   0  0  0  0  0  0  0  0  0  0  0  0
   -6.2688   -4.2222   -1.4148 C   0  0  0  0  0  0  0  0  0  0  0  0
   -5.3939   -1.8764   -1.6725 C   0  0  0  0  0  0  0  0  0  0  0  0
   -4.5756   -0.8208   -1.2598 C   0  0  0  0  0  0  0  0  0  0  0  0
   -3.4741    1.2177    1.0443 C   0  0  0  0  0  0  0  0  0  0  0  0
   -2.7009    2.2920    1.4927 C   0  0  0  0  0  0  0  0  0  0  0  0
   -1.3198    2.3617    1.1677 C   0  0  0  0  0  0  0  0  0  0  0  0
   -0.5951    3.4376    1.7411 C   0  0  0  0  0  0  0  0  0  0  0  0
   -1.2028    4.4187    2.5293 C   0  0  0  0  0  0  0  0  0  0  0  0
   -2.5616    4.3494    2.7897 C   0  0  0  0  0  0  0  0  0  0  0  0
   -3.3038    3.2883    2.2793 C   0  0  0  0  0  0  0  0  0  0  0  0
   -0.7159    1.3455    0.3414 C   0  0  0  0  0  0  0  0  0  0  0  0
    0.6444    1.4127   -0.1564 C   0  0  0  0  0  0  0  0  0  0  0  0
    1.5350    0.3329    0.0608 C   0  0  0  0  0  0  0  0  0  0  0  0
    1.0887   -0.7834    0.7328 O   0  0  0  0  0  0  0  0  0  0  0  0
    2.8905    0.3393   -0.3155 C   0  0  0  0  0  0  0  0  0  0  0  0
    3.7768   -0.8111   -0.0736 C   0  0  0  0  0  0  0  0  0  0  0  0
    4.1017   -1.2180    1.2284 C   0  0  0  0  0  0  0  0  0  0  0  0
    4.9252   -2.3256    1.4505 C   0  0  0  0  0  0  0  0  0  0  0  0
    5.4365   -3.0569    0.3737 C   0  0  0  0  0  0  0  0  0  0  0  0
    6.3486   -4.2237    0.6119 C   0  0  0  0  0  0  0  0  0  0  0  0
    5.1329   -2.6476   -0.9283 C   0  0  0  0  0  0  0  0  0  0  0  0
    4.3087   -1.5404   -1.1482 C   0  0  0  0  0  0  0  0  0  0  0  0
    3.3811    1.4759   -0.9591 C   0  0  0  0  0  0  0  0  0  0  0  0
    2.5510    2.5596   -1.2604 C   0  0  0  0  0  0  0  0  0  0  0  0
    1.1788    2.5344   -0.8909 C   0  0  0  0  0  0  0  0  0  0  0  0
    0.3931    3.6286   -1.3354 C   0  0  0  0  0  0  0  0  0  0  0  0
    0.9350    4.7116   -2.0335 C   0  0  0  0  0  0  0  0  0  0  0  0
    2.2871    4.7313   -2.3328 C   0  0  0  0  0  0  0  0  0  0  0  0
    3.0874    3.6574   -1.9548 C   0  0  0  0  0  0  0  0  0  0  0  0
    1.4658   -3.1050   -0.8854 H   0  0  0  0  0  0  0  0  0  0  0  0
   -3.1572   -2.2824    1.4652 H   0  0  0  0  0  0  0  0  0  0  0  0
   -4.5842   -4.1374    0.7376 H   0  0  0  0  0  0  0  0  0  0  0  0
   -6.5931   -4.8354   -0.5674 H   0  0  0  0  0  0  0  0  0  0  0  0
   -7.1718   -3.8627   -1.9193 H   0  0  0  0  0  0  0  0  0  0  0  0
   -5.7014   -4.8496   -2.1091 H   0  0  0  0  0  0  0  0  0  0  0  0
   -6.0058   -1.7561   -2.5634 H   0  0  0  0  0  0  0  0  0  0  0  0
   -4.5678    0.1013   -1.8373 H   0  0  0  0  0  0  0  0  0  0  0  0
   -4.5344    1.1712    1.2921 H   0  0  0  0  0  0  0  0  0  0  0  0
    0.4797    3.5216    1.5893 H   0  0  0  0  0  0  0  0  0  0  0  0
   -0.6063    5.2287    2.9404 H   0  0  0  0  0  0  0  0  0  0  0  0
   -3.0423    5.1070    3.4024 H   0  0  0  0  0  0  0  0  0  0  0  0
   -4.3653    3.2372    2.5153 H   0  0  0  0  0  0  0  0  0  0  0  0
    3.7112   -0.6700    2.0841 H   0  0  0  0  0  0  0  0  0  0  0  0
    5.1630   -2.6116    2.4729 H   0  0  0  0  0  0  0  0  0  0  0  0
    6.0984   -4.7297    1.5502 H   0  0  0  0  0  0  0  0  0  0  0  0
    7.3874   -3.8829    0.6593 H   0  0  0  0  0  0  0  0  0  0  0  0
    6.2545   -4.9630   -0.1904 H   0  0  0  0  0  0  0  0  0  0  0  0
    5.5341   -3.1874   -1.7832 H   0  0  0  0  0  0  0  0  0  0  0  0
    4.0715   -1.2539   -2.1715 H   0  0  0  0  0  0  0  0  0  0  0  0
    4.4310    1.5024   -1.2498 H   0  0  0  0  0  0  0  0  0  0  0  0
   -0.6799    3.6480   -1.1531 H   0  0  0  0  0  0  0  0  0  0  0  0
    0.2919    5.5302   -2.3453 H   0  0  0  0  0  0  0  0  0  0  0  0
    2.7166    5.5683   -2.8762 H   0  0  0  0  0  0  0  0  0  0  0  0
    4.1421    3.6782   -2.2237 H   0  0  0  0  0  0  0  0  0  0  0  0
  2 24  1  0  0  0  0
  2  1  2  0  0  0  0
  3 40  1  0  0  0  0
  3  2  1  0  0  0  0
  4  2  1  0  0  0  0
  4  5  1  0  0  0  0
  5  6  2  0  0  0  0
  5 21  1  0  0  0  0
  6 14  1  0  0  0  0
  7  6  1  0  0  0  0
  7  8  2  0  0  0  0
  8 41  1  0  0  0  0
  9  8  1  0  0  0  0
  9 42  1  0  0  0  0
 10  9  2  0  0  0  0
 11 10  1  0  0  0  0
 11 43  1  0  0  0  0
 12 13  2  0  0  0  0
 12 10  1  0  0  0  0
 13  7  1  0  0  0  0
 14 48  1  0  0  0  0
 14 15  2  0  0  0  0
 15 20  1  0  0  0  0
 16 15  1  0  0  0  0
 16 17  1  0  0  0  0
 17 18  2  0  0  0  0
 18 19  1  0  0  0  0
 18 50  1  0  0  0  0
 19 51  1  0  0  0  0
 20 52  1  0  0  0  0
 20 19  2  0  0  0  0
 21 16  2  0  0  0  0
 22 23  2  0  0  0  0
 22 21  1  0  0  0  0
 23 24  1  0  0  0  0
 25 26  1  0  0  0  0
 25 23  1  0  0  0  0
 26 27  2  0  0  0  0
 27 28  1  0  0  0  0
 27 53  1  0  0  0  0
 28 54  1  0  0  0  0
 29 30  1  0  0  0  0
 29 28  2  0  0  0  0
 30 56  1  0  0  0  0
 30 55  1  0  0  0  0
 31 29  1  0  0  0  0
 32 31  2  0  0  0  0
 32 26  1  0  0  0  0
 33 25  2  0  0  0  0
 34 33  1  0  0  0  0
 34 35  1  0  0  0  0
 35 22  1  0  0  0  0
 36 61  1  0  0  0  0
 36 35  2  0  0  0  0
 37 36  1  0  0  0  0
 38 37  2  0  0  0  0
 38 39  1  0  0  0  0
 39 34  2  0  0  0  0
 44 11  1  0  0  0  0
 45 11  1  0  0  0  0
 46 12  1  0  0  0  0
 47 13  1  0  0  0  0
 49 17  1  0  0  0  0
 57 30  1  0  0  0  0
 58 31  1  0  0  0  0
 59 32  1  0  0  0  0
 60 33  1  0  0  0  0
 62 37  1  0  0  0  0
 63 38  1  0  0  0  0
 64 39  1  0  0  0  0
M  END
$$$$
