O=P1(O)OC2=C(C3=CC=C(C)C=C3)C=C4C(C=CC=C4)=C2C5=C(O1)C(C6=CC=C(C)C=C6)=CC7=C5C=CC=C7
 OpenBabel09032010373D

 64 70  0  0  0  0  0  0  0  0999 V2000
    0.6254   -2.6757   -1.3578 O   0  0  0  0  0  0  0  0  0  0  0  0
    0.0194   -1.7463   -0.3532 P   0  0  0  0  0  0  0  0  0  0  0  0
   -0.8069   -2.5462    0.7722 O   0  0  0  0  0  0  0  0  0  0  0  0
   -1.0690   -0.7233   -0.9552 O   0  0  0  0  0  0  0  0  0  0  0  0
   -1.5458    0.2897   -0.1528 C   0  0  0  0  0  0  0  0  0  0  0  0
   -2.8977    0.2071    0.2263 C   0  0  0  0  0  0  0  0  0  0  0  0
   -3.7493   -0.9330   -0.1491 C   0  0  0  0  0  0  0  0  0  0  0  0
   -4.2313   -1.8160    0.8293 C   0  0  0  0  0  0  0  0  0  0  0  0
   -5.0272   -2.9108    0.4806 C   0  0  0  0  0  0  0  0  0  0  0  0
   -5.3512   -3.1527   -0.8580 C   0  0  0  0  0  0  0  0  0  0  0  0
   -6.2342   -4.3065   -1.2310 C   0  0  0  0  0  0  0  0  0  0  0  0
   -4.8882   -2.2688   -1.8380 C   0  0  0  0  0  0  0  0  0  0  0  0
   -4.0923   -1.1744   -1.4870 C   0  0  0  0  0  0  0  0  0  0  0  0
   -3.4204    1.2421    1.0026 C   0  0  0  0  0  0  0  0  0  0  0  0
   -2.6240    2.3094    1.4277 C   0  0  0  0  0  0  0  0  0  0  0  0
   -1.2546    2.3738    1.0529 C   0  0  0  0  0  0  0  0  0  0  0  0
   -0.5016    3.4328    1.6218 C   0  0  0  0  0  0  0  0  0  0  0  0
   -1.0730    4.4063    2.4459 C   0  0  0  0  0  0  0  0  0  0  0  0
   -2.4228    4.3457    2.7501 C   0  0  0  0  0  0  0  0  0  0  0  0
   -3.1908    3.2986    2.2496 C   0  0  0  0  0  0  0  0  0  0  0  0
   -0.6895    1.3655    0.1886 C   0  0  0  0  0  0  0  0  0  0  0  0
    0.6691    1.4030   -0.3161 C   0  0  0  0  0  0  0  0  0  0  0  0
    1.5327    0.2974   -0.1080 C   0  0  0  0  0  0  0  0  0  0  0  0
    1.0386   -0.8362    0.5007 O   0  0  0  0  0  0  0  0  0  0  0  0
    2.9019    0.3074   -0.4217 C   0  0  0  0  0  0  0  0  0  0  0  0
    3.7876   -0.8218   -0.1133 C   0  0  0  0  0  0  0  0  0  0  0  0
    3.8813   -1.9227   -0.9747 C   0  0  0  0  0  0  0  0  0  0  0  0
    4.7295   -2.9934   -0.6776 C   0  0  0  0  0  0  0  0  0  0  0  0
    5.4975   -2.9874    0.4914 C   0  0  0  0  0  0  0  0  0  0  0  0
    6.4295   -4.1226    0.7940 C   0  0  0  0  0  0  0  0  0  0  0  0
    5.4221   -1.8832    1.3464 C   0  0  0  0  0  0  0  0  0  0  0  0
    4.5719   -0.8145    1.0491 C   0  0  0  0  0  0  0  0  0  0  0  0
    3.4269    1.4480   -1.0307 C   0  0  0  0  0  0  0  0  0  0  0  0
    2.6172    2.5415   -1.3504 C   0  0  0  0  0  0  0  0  0  0  0  0
    1.2361    2.5281   -1.0179 C   0  0  0  0  0  0  0  0  0  0  0  0
    0.4744    3.6400   -1.4596 C   0  0  0  0  0  0  0  0  0  0  0  0
    1.0466    4.7260   -2.1277 C   0  0  0  0  0  0  0  0  0  0  0  0
    2.4057    4.7314   -2.3963 C   0  0  0  0  0  0  0  0  0  0  0  0
    3.1838    3.6421   -2.0154 C   0  0  0  0  0  0  0  0  0  0  0  0
   -1.3450   -3.2455    0.3585 H   0  0  0  0  0  0  0  0  0  0  0  0
   -3.9780   -1.6594    1.8765 H   0  0  0  0  0  0  0  0  0  0  0  0
   -5.3904   -3.5724    1.2637 H   0  0  0  0  0  0  0  0  0  0  0  0
   -7.2834   -3.9962   -1.2114 H   0  0  0  0  0  0  0  0  0  0  0  0
   -6.0989   -5.1423   -0.5365 H   0  0  0  0  0  0  0  0  0  0  0  0
   -5.9923   -4.6752   -2.2334 H   0  0  0  0  0  0  0  0  0  0  0  0
   -5.1427   -2.4245   -2.8842 H   0  0  0  0  0  0  0  0  0  0  0  0
   -3.7376   -0.5052   -2.2692 H   0  0  0  0  0  0  0  0  0  0  0  0
   -4.4684    1.1986    1.2980 H   0  0  0  0  0  0  0  0  0  0  0  0
    0.5688    3.5094    1.4393 H   0  0  0  0  0  0  0  0  0  0  0  0
   -0.4545    5.2029    2.8509 H   0  0  0  0  0  0  0  0  0  0  0  0
   -2.8753    5.0975    3.3907 H   0  0  0  0  0  0  0  0  0  0  0  0
   -4.2435    3.2523    2.5227 H   0  0  0  0  0  0  0  0  0  0  0  0
    3.2852   -1.9589   -1.8850 H   0  0  0  0  0  0  0  0  0  0  0  0
    4.7779   -3.8344   -1.3656 H   0  0  0  0  0  0  0  0  0  0  0  0
    6.5505   -4.2513    1.8747 H   0  0  0  0  0  0  0  0  0  0  0  0
    7.4104   -3.9302    0.3485 H   0  0  0  0  0  0  0  0  0  0  0  0
    6.0388   -5.0654    0.3969 H   0  0  0  0  0  0  0  0  0  0  0  0
    6.0197   -1.8475    2.2540 H   0  0  0  0  0  0  0  0  0  0  0  0
    4.5188    0.0277    1.7358 H   0  0  0  0  0  0  0  0  0  0  0  0
    4.4873    1.4656   -1.2816 H   0  0  0  0  0  0  0  0  0  0  0  0
   -0.6016    3.6708   -1.2972 H   0  0  0  0  0  0  0  0  0  0  0  0
    0.4225    5.5590   -2.4400 H   0  0  0  0  0  0  0  0  0  0  0  0
    2.8589    5.5709   -2.9161 H   0  0  0  0  0  0  0  0  0  0  0  0
    4.2452    3.6533   -2.2571 H   0  0  0  0  0  0  0  0  0  0  0  0
  1  2  2  0  0  0  0
  2 24  1  0  0  0  0
  2  3  1  0  0  0  0
  4  2  1  0  0  0  0
  4  5  1  0  0  0  0
  5 21  2  0  0  0  0
  5  6  1  0  0  0  0
  6 14  2  0  0  0  0
  7  6  1  0  0  0  0
  7  8  2  0  0  0  0
  8 41  1  0  0  0  0
  9  8  1  0  0  0  0
  9 42  1  0  0  0  0
 10  9  2  0  0  0  0
 11 43  1  0  0  0  0
 11 10  1  0  0  0  0
 11 44  1  0  0  0  0
 12 13  2  0  0  0  0
 12 10  1  0  0  0  0
 13  7  1  0  0  0  0
 14 48  1  0  0  0  0
 14 15  1  0  0  0  0
 15 20  1  0  0  0  0
 16 15  2  0  0  0  0
 16 17  1  0  0  0  0
 17 18  2  0  0  0  0
 18 19  1  0  0  0  0
 18 50  1  0  0  0  0
 19 51  1  0  0  0  0
 20 52  1  0  0  0  0
 20 19  2  0  0  0  0
 21 16  1  0  0  0  0
 22 23  2  0  0  0  0
 22 21  1  0  0  0  0
 23 24  1  0  0  0  0
 25 26  1  0  0  0  0
 25 23  1  0  0  0  0
 26 32  2  0  0  0  0
 27 28  2  0  0  0  0
 27 26  1  0  0  0  0
 28 29  1  0  0  0  0
 29 30  1  0  0  0  0
 29 31  2  0  0  0  0
 30 55  1  0  0  0  0
 31 58  1  0  0  0  0
 32 31  1  0  0  0  0
 32 59  1  0  0  0  0
 33 25  2  0  0  0  0
 34 33  1  0  0  0  0
 34 35  1  0  0  0  0
 35 22  1  0  0  0  0
 36 61  1  0  0  0  0
 36 35  2  0  0  0  0
 37 36  1  0  0  0  0
 38 37  2  0  0  0  0
 38 39  1  0  0  0  0
 39 34  2  0  0  0  0
 40  3  1  0  0  0  0
 45 11  1  0  0  0  0
 46 12  1  0  0  0  0
 47 13  1  0  0  0  0
 49 17  1  0  0  0  0
 53 27  1  0  0  0  0
 54 28  1  0  0  0  0
 56 30  1  0  0  0  0
 57 30  1  0  0  0  0
 60 33  1  0  0  0  0
 62 37  1  0  0  0  0
 63 38  1  0  0  0  0
 64 39  1  0  0  0  0
M  END
$$$$
