O=P1(O)OC2=[C@]([C@]3=C(Cl)C=C(Cl)C=C3Cl)C=C4C(CCCC4)=[C@]2[C@]5=C(O1)C(C6=C(Cl)C=C(Cl)C=C6Cl)=CC7=C5CCCC7
 OpenBabel09032010373D

 66 72  0  0  0  0  0  0  0  0999 V2000
   -0.8496   -3.6529    0.8686 O   0  0  0  0  0  0  0  0  0  0  0  0
   -0.2379   -2.6304   -0.0374 P   0  0  0  0  0  0  0  0  0  0  0  0
    0.3907   -3.3600   -1.3255 O   0  0  0  0  0  0  0  0  0  0  0  0
    0.9955   -1.7989    0.5817 O   0  0  0  0  0  0  0  0  0  0  0  0
    1.4834   -0.7102   -0.1077 C   0  0  0  0  0  0  0  0  0  0  0  0
    2.8238   -0.7727   -0.5316 C   0  0  0  0  0  0  0  0  0  0  0  0
    3.6826   -1.9332   -0.2206 C   0  0  0  0  0  0  0  0  0  0  0  0
    3.9912   -2.9062   -1.1952 C   0  0  0  0  0  0  0  0  0  0  0  0
    3.4269   -2.7809   -2.8297 Cl  0  0  0  0  0  0  0  0  0  0  0  0
    4.7763   -4.0222   -0.8867 C   0  0  0  0  0  0  0  0  0  0  0  0
    5.2722   -4.1824    0.4012 C   0  0  0  0  0  0  0  0  0  0  0  0
    6.2365   -5.5552    0.7800 Cl  0  0  0  0  0  0  0  0  0  0  0  0
    5.0014   -3.2376    1.3827 C   0  0  0  0  0  0  0  0  0  0  0  0
    4.2162   -2.1223    1.0733 C   0  0  0  0  0  0  0  0  0  0  0  0
    3.9540   -0.9753    2.3477 Cl  0  0  0  0  0  0  0  0  0  0  0  0
    3.3325    0.3045   -1.2618 C   0  0  0  0  0  0  0  0  0  0  0  0
    2.5210    1.3919   -1.6126 C   0  0  0  0  0  0  0  0  0  0  0  0
    1.1768    1.4355   -1.1745 C   0  0  0  0  0  0  0  0  0  0  0  0
    0.2562    2.5257   -1.7106 C   0  0  0  0  0  0  0  0  0  0  0  0
    0.7897    3.2270   -2.9589 C   0  0  0  0  0  0  0  0  0  0  0  0
    2.2268    3.6624   -2.7265 C   0  0  0  0  0  0  0  0  0  0  0  0
    3.1130    2.4388   -2.5290 C   0  0  0  0  0  0  0  0  0  0  0  0
    0.6581    0.4193   -0.3127 C   0  0  0  0  0  0  0  0  0  0  0  0
   -0.6297    0.5053    0.3164 C   0  0  0  0  0  0  0  0  0  0  0  0
   -1.6092   -0.4811    0.0701 C   0  0  0  0  0  0  0  0  0  0  0  0
   -1.2705   -1.5786   -0.6878 O   0  0  0  0  0  0  0  0  0  0  0  0
   -2.9333   -0.3928    0.5327 C   0  0  0  0  0  0  0  0  0  0  0  0
   -3.9332   -1.4331    0.2253 C   0  0  0  0  0  0  0  0  0  0  0  0
   -4.2703   -2.4269    1.1696 C   0  0  0  0  0  0  0  0  0  0  0  0
   -3.5704   -2.4552    2.7554 Cl  0  0  0  0  0  0  0  0  0  0  0  0
   -5.1921   -3.4343    0.8684 C   0  0  0  0  0  0  0  0  0  0  0  0
   -5.7983   -3.4617   -0.3814 C   0  0  0  0  0  0  0  0  0  0  0  0
   -6.9311   -4.7009   -0.7547 Cl  0  0  0  0  0  0  0  0  0  0  0  0
   -5.5000   -2.4921   -1.3313 C   0  0  0  0  0  0  0  0  0  0  0  0
   -4.5763   -1.4865   -1.0294 C   0  0  0  0  0  0  0  0  0  0  0  0
   -4.2734   -0.3051   -2.2614 Cl  0  0  0  0  0  0  0  0  0  0  0  0
   -3.2794    0.7071    1.3211 C   0  0  0  0  0  0  0  0  0  0  0  0
   -2.3237    1.6618    1.6951 C   0  0  0  0  0  0  0  0  0  0  0  0
   -0.9921    1.5431    1.2315 C   0  0  0  0  0  0  0  0  0  0  0  0
    0.0761    2.4717    1.7971 C   0  0  0  0  0  0  0  0  0  0  0  0
   -0.3388    3.1796    3.0860 C   0  0  0  0  0  0  0  0  0  0  0  0
   -1.7059    3.8170    2.9023 C   0  0  0  0  0  0  0  0  0  0  0  0
   -2.7536    2.7357    2.6689 C   0  0  0  0  0  0  0  0  0  0  0  0
   -0.0417   -4.2223   -1.4610 H   0  0  0  0  0  0  0  0  0  0  0  0
    4.9964   -4.7632   -1.6511 H   0  0  0  0  0  0  0  0  0  0  0  0
    5.3983   -3.3651    2.3869 H   0  0  0  0  0  0  0  0  0  0  0  0
    4.3652    0.2781   -1.6080 H   0  0  0  0  0  0  0  0  0  0  0  0
    0.0971    3.2868   -0.9451 H   0  0  0  0  0  0  0  0  0  0  0  0
   -0.7202    2.0948   -1.9628 H   0  0  0  0  0  0  0  0  0  0  0  0
    0.7368    2.5538   -3.8238 H   0  0  0  0  0  0  0  0  0  0  0  0
    0.1631    4.0963   -3.1879 H   0  0  0  0  0  0  0  0  0  0  0  0
    2.2792    4.3106   -1.8425 H   0  0  0  0  0  0  0  0  0  0  0  0
    2.5911    4.2495   -3.5769 H   0  0  0  0  0  0  0  0  0  0  0  0
    4.0845    2.7646   -2.1382 H   0  0  0  0  0  0  0  0  0  0  0  0
    3.2903    1.9689   -3.5051 H   0  0  0  0  0  0  0  0  0  0  0  0
   -5.4303   -4.1948    1.6082 H   0  0  0  0  0  0  0  0  0  0  0  0
   -5.9828   -2.5164   -2.3052 H   0  0  0  0  0  0  0  0  0  0  0  0
   -4.2976    0.7976    1.6984 H   0  0  0  0  0  0  0  0  0  0  0  0
    0.9884    1.9017    2.0097 H   0  0  0  0  0  0  0  0  0  0  0  0
    0.3254    3.2397    1.0630 H   0  0  0  0  0  0  0  0  0  0  0  0
    0.4040    3.9438    3.3408 H   0  0  0  0  0  0  0  0  0  0  0  0
   -0.3665    2.4656    3.9188 H   0  0  0  0  0  0  0  0  0  0  0  0
   -1.9744    4.4078    3.7850 H   0  0  0  0  0  0  0  0  0  0  0  0
   -1.6815    4.5068    2.0491 H   0  0  0  0  0  0  0  0  0  0  0  0
   -2.9794    2.2494    3.6268 H   0  0  0  0  0  0  0  0  0  0  0  0
   -3.6771    3.2081    2.3129 H   0  0  0  0  0  0  0  0  0  0  0  0
  2  4  1  0  0  0  0
  2  1  2  0  0  0  0
  3  2  1  0  0  0  0
  5  4  1  0  0  0  0
  6  7  1  0  0  0  0
  6  5  2  0  0  0  0
  7 14  2  0  0  0  0
  8 10  2  0  0  0  0
  8  7  1  0  0  0  0
  9  8  1  0  0  0  0
 10 11  1  0  0  0  0
 11 12  1  0  0  0  0
 11 13  2  0  0  0  0
 13 46  1  0  0  0  0
 14 13  1  0  0  0  0
 14 15  1  0  0  0  0
 16  6  1  0  0  0  0
 17 16  2  0  0  0  0
 17 18  1  0  0  0  0
 18 23  2  0  0  0  0
 19 18  1  0  0  0  0
 19 48  1  0  0  0  0
 20 21  1  0  0  0  0
 20 19  1  0  0  0  0
 21 22  1  0  0  0  0
 21 52  1  0  0  0  0
 22 54  1  0  0  0  0
 22 17  1  0  0  0  0
 23  5  1  0  0  0  0
 23 24  1  0  0  0  0
 24 39  1  0  0  0  0
 25 24  2  0  0  0  0
 25 27  1  0  0  0  0
 26  2  1  0  0  0  0
 26 25  1  0  0  0  0
 27 37  2  0  0  0  0
 28 27  1  0  0  0  0
 28 29  2  0  0  0  0
 29 30  1  0  0  0  0
 31 29  1  0  0  0  0
 31 56  1  0  0  0  0
 32 31  2  0  0  0  0
 33 32  1  0  0  0  0
 34 35  2  0  0  0  0
 34 32  1  0  0  0  0
 35 28  1  0  0  0  0
 36 35  1  0  0  0  0
 37 38  1  0  0  0  0
 37 58  1  0  0  0  0
 38 43  1  0  0  0  0
 39 38  2  0  0  0  0
 39 40  1  0  0  0  0
 40 59  1  0  0  0  0
 40 41  1  0  0  0  0
 41 61  1  0  0  0  0
 41 62  1  0  0  0  0
 42 41  1  0  0  0  0
 42 63  1  0  0  0  0
 43 42  1  0  0  0  0
 43 65  1  0  0  0  0
 44  3  1  0  0  0  0
 45 10  1  0  0  0  0
 47 16  1  0  0  0  0
 49 19  1  0  0  0  0
 50 20  1  0  0  0  0
 51 20  1  0  0  0  0
 53 21  1  0  0  0  0
 55 22  1  0  0  0  0
 57 34  1  0  0  0  0
 60 40  1  0  0  0  0
 64 42  1  0  0  0  0
 66 43  1  0  0  0  0
M  END
$$$$
