O=P1(O)OC2=C(C3=CC(C4=CC(C=CC=C5)=C5C=C4)=CC=C3)C=C6C(C=CC=C6)=C2C7=C(O1)C(C8=CC=CC(C9=CC=C(C=CC=C%10)C%10=C9)=C8)=CC%11=C7C=CC=C%11
 OpenBabel09032010373D

 90100  0  0  0  0  0  0  0  0999 V2000
   -0.9008    1.6902    0.5926 O   0  0  0  0  0  0  0  0  0  0  0  0
   -0.4617    0.5009   -0.2016 P   0  0  0  0  0  0  0  0  0  0  0  0
   -0.5057    0.7871   -1.7844 O   0  0  0  0  0  0  0  0  0  0  0  0
   -1.3922   -0.8014   -0.0349 O   0  0  0  0  0  0  0  0  0  0  0  0
   -0.9877   -1.9952   -0.5952 C   0  0  0  0  0  0  0  0  0  0  0  0
   -1.7517   -2.4781   -1.6789 C   0  0  0  0  0  0  0  0  0  0  0  0
   -2.8764   -1.7122   -2.2610 C   0  0  0  0  0  0  0  0  0  0  0  0
   -3.8825   -1.1606   -1.4487 C   0  0  0  0  0  0  0  0  0  0  0  0
   -4.8987   -0.3348   -1.9630 C   0  0  0  0  0  0  0  0  0  0  0  0
   -5.8479    0.3277   -1.0551 C   0  0  0  0  0  0  0  0  0  0  0  0
   -5.3725    1.0797    0.0349 C   0  0  0  0  0  0  0  0  0  0  0  0
   -6.2437    1.7251    0.9251 C   0  0  0  0  0  0  0  0  0  0  0  0
   -5.7519    2.4680    2.0093 C   0  0  0  0  0  0  0  0  0  0  0  0
   -6.6263    3.1023    2.8902 C   0  0  0  0  0  0  0  0  0  0  0  0
   -8.0007    3.0031    2.6955 C   0  0  0  0  0  0  0  0  0  0  0  0
   -8.5044    2.2691    1.6194 C   0  0  0  0  0  0  0  0  0  0  0  0
   -7.6367    1.6231    0.7242 C   0  0  0  0  0  0  0  0  0  0  0  0
   -8.1169    0.8786   -0.3644 C   0  0  0  0  0  0  0  0  0  0  0  0
   -7.2331    0.2408   -1.2423 C   0  0  0  0  0  0  0  0  0  0  0  0
   -4.9379   -0.1219   -3.3467 C   0  0  0  0  0  0  0  0  0  0  0  0
   -3.9752   -0.6894   -4.1815 C   0  0  0  0  0  0  0  0  0  0  0  0
   -2.9482   -1.4657   -3.6408 C   0  0  0  0  0  0  0  0  0  0  0  0
   -1.3858   -3.7138   -2.2173 C   0  0  0  0  0  0  0  0  0  0  0  0
   -0.2768   -4.4240   -1.7446 C   0  0  0  0  0  0  0  0  0  0  0  0
    0.4961   -3.9117   -0.6684 C   0  0  0  0  0  0  0  0  0  0  0  0
    1.6649   -4.6432   -0.3339 C   0  0  0  0  0  0  0  0  0  0  0  0
    2.0115   -5.8402   -0.9663 C   0  0  0  0  0  0  0  0  0  0  0  0
    1.2078   -6.3431   -1.9759 C   0  0  0  0  0  0  0  0  0  0  0  0
    0.0752   -5.6345   -2.3665 C   0  0  0  0  0  0  0  0  0  0  0  0
    0.1098   -2.6846   -0.0176 C   0  0  0  0  0  0  0  0  0  0  0  0
    0.7745   -2.1479    1.1562 C   0  0  0  0  0  0  0  0  0  0  0  0
    1.2637   -0.8152    1.1518 C   0  0  0  0  0  0  0  0  0  0  0  0
    1.0377   -0.0302    0.0405 O   0  0  0  0  0  0  0  0  0  0  0  0
    2.0214   -0.2462    2.1937 C   0  0  0  0  0  0  0  0  0  0  0  0
    2.5370    1.1355    2.1358 C   0  0  0  0  0  0  0  0  0  0  0  0
    2.2475    2.0587    3.1525 C   0  0  0  0  0  0  0  0  0  0  0  0
    2.7021    3.3760    3.0769 C   0  0  0  0  0  0  0  0  0  0  0  0
    3.4458    3.7960    1.9751 C   0  0  0  0  0  0  0  0  0  0  0  0
    3.7566    2.9034    0.9416 C   0  0  0  0  0  0  0  0  0  0  0  0
    4.4938    3.3437   -0.2476 C   0  0  0  0  0  0  0  0  0  0  0  0
    3.9435    4.2995   -1.1112 C   0  0  0  0  0  0  0  0  0  0  0  0
    4.6219    4.6959   -2.2654 C   0  0  0  0  0  0  0  0  0  0  0  0
    5.8757    4.1523   -2.5811 C   0  0  0  0  0  0  0  0  0  0  0  0
    6.5742    4.5423   -3.7351 C   0  0  0  0  0  0  0  0  0  0  0  0
    7.8208    3.9903   -4.0348 C   0  0  0  0  0  0  0  0  0  0  0  0
    8.3833    3.0414   -3.1862 C   0  0  0  0  0  0  0  0  0  0  0  0
    7.7010    2.6427   -2.0360 C   0  0  0  0  0  0  0  0  0  0  0  0
    6.4470    3.1896   -1.7195 C   0  0  0  0  0  0  0  0  0  0  0  0
    5.7471    2.7970   -0.5658 C   0  0  0  0  0  0  0  0  0  0  0  0
    3.3109    1.5755    1.0480 C   0  0  0  0  0  0  0  0  0  0  0  0
    2.2723   -1.0414    3.3142 C   0  0  0  0  0  0  0  0  0  0  0  0
    1.7597   -2.3377    3.4252 C   0  0  0  0  0  0  0  0  0  0  0  0
    0.9907   -2.8957    2.3694 C   0  0  0  0  0  0  0  0  0  0  0  0
    0.4264   -4.1739    2.6135 C   0  0  0  0  0  0  0  0  0  0  0  0
    0.6618   -4.8881    3.7913 C   0  0  0  0  0  0  0  0  0  0  0  0
    1.4593   -4.3389    4.7817 C   0  0  0  0  0  0  0  0  0  0  0  0
    1.9986   -3.0687    4.6013 C   0  0  0  0  0  0  0  0  0  0  0  0
   -1.3330    1.2437   -2.0231 H   0  0  0  0  0  0  0  0  0  0  0  0
   -3.8651   -1.3597   -0.3765 H   0  0  0  0  0  0  0  0  0  0  0  0
   -4.2984    1.1726    0.1909 H   0  0  0  0  0  0  0  0  0  0  0  0
   -4.6807    2.5578    2.1771 H   0  0  0  0  0  0  0  0  0  0  0  0
   -6.2299    3.6718    3.7263 H   0  0  0  0  0  0  0  0  0  0  0  0
   -8.6819    3.4976    3.3817 H   0  0  0  0  0  0  0  0  0  0  0  0
   -9.5818    2.2045    1.4846 H   0  0  0  0  0  0  0  0  0  0  0  0
   -9.1867    0.7847   -0.5358 H   0  0  0  0  0  0  0  0  0  0  0  0
   -7.6391   -0.3387   -2.0686 H   0  0  0  0  0  0  0  0  0  0  0  0
   -5.7068    0.5130   -3.7825 H   0  0  0  0  0  0  0  0  0  0  0  0
   -4.0102   -0.5064   -5.2526 H   0  0  0  0  0  0  0  0  0  0  0  0
   -2.1845   -1.8599   -4.3087 H   0  0  0  0  0  0  0  0  0  0  0  0
   -1.9688   -4.1227   -3.0421 H   0  0  0  0  0  0  0  0  0  0  0  0
    2.3454   -4.2761    0.4324 H   0  0  0  0  0  0  0  0  0  0  0  0
    2.9135   -6.3682   -0.6682 H   0  0  0  0  0  0  0  0  0  0  0  0
    1.4697   -7.2730   -2.4731 H   0  0  0  0  0  0  0  0  0  0  0  0
   -0.5280   -6.0320   -3.1808 H   0  0  0  0  0  0  0  0  0  0  0  0
    1.6376    1.7635    4.0038 H   0  0  0  0  0  0  0  0  0  0  0  0
    2.4592    4.0799    3.8681 H   0  0  0  0  0  0  0  0  0  0  0  0
    3.7802    4.8299    1.9228 H   0  0  0  0  0  0  0  0  0  0  0  0
    2.9666    4.7294   -0.8980 H   0  0  0  0  0  0  0  0  0  0  0  0
    4.1607    5.4333   -2.9180 H   0  0  0  0  0  0  0  0  0  0  0  0
    6.1501    5.2818   -4.4105 H   0  0  0  0  0  0  0  0  0  0  0  0
    8.3509    4.3018   -4.9310 H   0  0  0  0  0  0  0  0  0  0  0  0
    9.3535    2.6102   -3.4184 H   0  0  0  0  0  0  0  0  0  0  0  0
    8.1540    1.8976   -1.3858 H   0  0  0  0  0  0  0  0  0  0  0  0
    6.1831    2.0535    0.0996 H   0  0  0  0  0  0  0  0  0  0  0  0
    3.5452    0.8776    0.2441 H   0  0  0  0  0  0  0  0  0  0  0  0
    2.8690   -0.6293    4.1279 H   0  0  0  0  0  0  0  0  0  0  0  0
   -0.2302   -4.6371    1.8791 H   0  0  0  0  0  0  0  0  0  0  0  0
    0.2133   -5.8685    3.9289 H   0  0  0  0  0  0  0  0  0  0  0  0
    1.6473   -4.8866    5.7007 H   0  0  0  0  0  0  0  0  0  0  0  0
    2.6015   -2.6434    5.4019 H   0  0  0  0  0  0  0  0  0  0  0  0
  2  4  1  0  0  0  0
  2 33  1  0  0  0  0
  2  1  2  0  0  0  0
  3  2  1  0  0  0  0
  5  4  1  0  0  0  0
  5 30  1  0  0  0  0
  6  5  2  0  0  0  0
  7  6  1  0  0  0  0
  7  8  2  0  0  0  0
  8 59  1  0  0  0  0
  9  8  1  0  0  0  0
  9 10  1  0  0  0  0
 10 11  1  0  0  0  0
 11 60  1  0  0  0  0
 11 12  2  0  0  0  0
 12 13  1  0  0  0  0
 13 61  1  0  0  0  0
 13 14  2  0  0  0  0
 14 62  1  0  0  0  0
 15 14  1  0  0  0  0
 15 63  1  0  0  0  0
 16 15  2  0  0  0  0
 17 12  1  0  0  0  0
 17 16  1  0  0  0  0
 18 17  2  0  0  0  0
 19 10  2  0  0  0  0
 19 18  1  0  0  0  0
 20  9  2  0  0  0  0
 21 22  2  0  0  0  0
 21 20  1  0  0  0  0
 22  7  1  0  0  0  0
 23 24  2  0  0  0  0
 23  6  1  0  0  0  0
 24 25  1  0  0  0  0
 25 26  1  0  0  0  0
 25 30  2  0  0  0  0
 26 71  1  0  0  0  0
 27 72  1  0  0  0  0
 27 26  2  0  0  0  0
 28 27  1  0  0  0  0
 29 28  2  0  0  0  0
 29 24  1  0  0  0  0
 30 31  1  0  0  0  0
 31 53  1  0  0  0  0
 32 31  2  0  0  0  0
 32 34  1  0  0  0  0
 33 32  1  0  0  0  0
 34 51  2  0  0  0  0
 35 34  1  0  0  0  0
 35 36  2  0  0  0  0
 36 75  1  0  0  0  0
 37 36  1  0  0  0  0
 37 76  1  0  0  0  0
 38 37  2  0  0  0  0
 39 50  2  0  0  0  0
 39 38  1  0  0  0  0
 40 39  1  0  0  0  0
 41 78  1  0  0  0  0
 41 40  2  0  0  0  0
 42 41  1  0  0  0  0
 43 42  2  0  0  0  0
 43 48  1  0  0  0  0
 44 43  1  0  0  0  0
 45 44  2  0  0  0  0
 45 46  1  0  0  0  0
 46 47  2  0  0  0  0
 47 48  1  0  0  0  0
 47 83  1  0  0  0  0
 48 49  2  0  0  0  0
 49 40  1  0  0  0  0
 49 84  1  0  0  0  0
 50 35  1  0  0  0  0
 51 52  1  0  0  0  0
 51 86  1  0  0  0  0
 52 57  2  0  0  0  0
 53 54  2  0  0  0  0
 53 52  1  0  0  0  0
 54 55  1  0  0  0  0
 55 88  1  0  0  0  0
 55 56  2  0  0  0  0
 56 89  1  0  0  0  0
 57 56  1  0  0  0  0
 57 90  1  0  0  0  0
 58  3  1  0  0  0  0
 64 16  1  0  0  0  0
 65 18  1  0  0  0  0
 66 19  1  0  0  0  0
 67 20  1  0  0  0  0
 68 21  1  0  0  0  0
 69 22  1  0  0  0  0
 70 23  1  0  0  0  0
 73 28  1  0  0  0  0
 74 29  1  0  0  0  0
 77 38  1  0  0  0  0
 79 42  1  0  0  0  0
 80 44  1  0  0  0  0
 81 45  1  0  0  0  0
 82 46  1  0  0  0  0
 85 50  1  0  0  0  0
 87 54  1  0  0  0  0
M  END
$$$$
