O=P1(O)OC2=C(C3=C(C4CCCCC4)C=C(C5CCCCC5)C=C3C6CCCCC6)C=C7C(C=CC=C7)=C2C8=C(O1)[C@@]([C@@]9=C(C%10CCCCC%10)C=C(C%11CCCCC%11)C=C9C%12CCCCC%12)=CC%13=C8C=CC=C%13
 OpenBabel09032010373D

154166  0  0  0  0  0  0  0  0999 V2000
    0.0578    0.6021    2.0344 O   0  0  0  0  0  0  0  0  0  0  0  0
   -0.0998    0.4141    0.5595 P   0  0  0  0  0  0  0  0  0  0  0  0
   -0.4584    1.8019   -0.1666 O   0  0  0  0  0  0  0  0  0  0  0  0
    1.1893   -0.1054   -0.2501 O   0  0  0  0  0  0  0  0  0  0  0  0
    1.4753   -1.4497   -0.2013 C   0  0  0  0  0  0  0  0  0  0  0  0
    2.6766   -1.8258    0.4270 C   0  0  0  0  0  0  0  0  0  0  0  0
    3.6287   -0.8410    0.9906 C   0  0  0  0  0  0  0  0  0  0  0  0
    4.4978   -0.1148    0.1251 C   0  0  0  0  0  0  0  0  0  0  0  0
    4.4705   -0.2836   -1.3966 C   0  0  0  0  0  0  0  0  0  0  0  0
    5.8086   -0.8162   -1.9449 C   0  0  0  0  0  0  0  0  0  0  0  0
    5.7499   -1.0034   -3.4607 C   0  0  0  0  0  0  0  0  0  0  0  0
    5.3287    0.2800   -4.1713 C   0  0  0  0  0  0  0  0  0  0  0  0
    4.0099    0.8222   -3.6271 C   0  0  0  0  0  0  0  0  0  0  0  0
    4.0633    1.0176   -2.1126 C   0  0  0  0  0  0  0  0  0  0  0  0
    5.4325    0.7816    0.6804 C   0  0  0  0  0  0  0  0  0  0  0  0
    5.5558    0.9611    2.0598 C   0  0  0  0  0  0  0  0  0  0  0  0
    6.5858    1.9059    2.6529 C   0  0  0  0  0  0  0  0  0  0  0  0
    6.4649    3.3367    2.1078 C   0  0  0  0  0  0  0  0  0  0  0  0
    7.3968    4.3019    2.8467 C   0  0  0  0  0  0  0  0  0  0  0  0
    8.6782    3.6433    3.3615 C   0  0  0  0  0  0  0  0  0  0  0  0
    9.0916    2.4557    2.5035 C   0  0  0  0  0  0  0  0  0  0  0  0
    8.0192    1.3623    2.4795 C   0  0  0  0  0  0  0  0  0  0  0  0
    4.7129    0.2294    2.9014 C   0  0  0  0  0  0  0  0  0  0  0  0
    3.7301   -0.6480    2.4002 C   0  0  0  0  0  0  0  0  0  0  0  0
    2.8443   -1.4139    3.3912 C   0  0  0  0  0  0  0  0  0  0  0  0
    2.2525   -0.5411    4.5236 C   0  0  0  0  0  0  0  0  0  0  0  0
    1.6360   -1.4163    5.6095 C   0  0  0  0  0  0  0  0  0  0  0  0
    2.6804   -2.3098    6.2800 C   0  0  0  0  0  0  0  0  0  0  0  0
    3.9198   -2.5536    5.4190 C   0  0  0  0  0  0  0  0  0  0  0  0
    3.5758   -2.6634    3.9371 C   0  0  0  0  0  0  0  0  0  0  0  0
    2.9986   -3.1852    0.4641 C   0  0  0  0  0  0  0  0  0  0  0  0
    2.1380   -4.1528   -0.0574 C   0  0  0  0  0  0  0  0  0  0  0  0
    0.9386   -3.7605   -0.7071 C   0  0  0  0  0  0  0  0  0  0  0  0
    0.0853   -4.8101   -1.1337 C   0  0  0  0  0  0  0  0  0  0  0  0
    0.4206   -6.1589   -0.9866 C   0  0  0  0  0  0  0  0  0  0  0  0
    1.6210   -6.5095   -0.3903 C   0  0  0  0  0  0  0  0  0  0  0  0
    2.4715   -5.5113    0.0761 C   0  0  0  0  0  0  0  0  0  0  0  0
    0.6211   -2.3631   -0.8668 C   0  0  0  0  0  0  0  0  0  0  0  0
   -0.4687   -1.8778   -1.6915 C   0  0  0  0  0  0  0  0  0  0  0  0
   -1.4295   -0.9774   -1.1679 C   0  0  0  0  0  0  0  0  0  0  0  0
   -1.3160   -0.5453    0.1325 O   0  0  0  0  0  0  0  0  0  0  0  0
   -2.5905   -0.5821   -1.8609 C   0  0  0  0  0  0  0  0  0  0  0  0
   -3.6074    0.3186   -1.2671 C   0  0  0  0  0  0  0  0  0  0  0  0
   -4.5292   -0.1782   -0.3016 C   0  0  0  0  0  0  0  0  0  0  0  0
   -4.5369   -1.6390    0.1585 C   0  0  0  0  0  0  0  0  0  0  0  0
   -5.8633   -2.3433   -0.1752 C   0  0  0  0  0  0  0  0  0  0  0  0
   -5.7939   -3.8443    0.1232 C   0  0  0  0  0  0  0  0  0  0  0  0
   -4.8691   -4.1945    1.2906 C   0  0  0  0  0  0  0  0  0  0  0  0
   -4.7626   -3.0541    2.2933 C   0  0  0  0  0  0  0  0  0  0  0  0
   -4.1904   -1.7834    1.6575 C   0  0  0  0  0  0  0  0  0  0  0  0
   -5.5009    0.6906    0.2354 C   0  0  0  0  0  0  0  0  0  0  0  0
   -5.6111    2.0216   -0.1721 C   0  0  0  0  0  0  0  0  0  0  0  0
   -6.6785    2.9442    0.3911 C   0  0  0  0  0  0  0  0  0  0  0  0
   -8.0958    2.4601    0.0382 C   0  0  0  0  0  0  0  0  0  0  0  0
   -9.1624    3.3984    0.6004 C   0  0  0  0  0  0  0  0  0  0  0  0
   -9.0014    3.5971    2.1047 C   0  0  0  0  0  0  0  0  0  0  0  0
   -7.5976    4.0760    2.4631 C   0  0  0  0  0  0  0  0  0  0  0  0
   -6.5245    3.1401    1.9097 C   0  0  0  0  0  0  0  0  0  0  0  0
   -4.7196    2.4942   -1.1393 C   0  0  0  0  0  0  0  0  0  0  0  0
   -3.7036    1.6824   -1.6836 C   0  0  0  0  0  0  0  0  0  0  0  0
   -2.7879    2.2716   -2.7673 C   0  0  0  0  0  0  0  0  0  0  0  0
   -3.4771    2.2273   -4.1528 C   0  0  0  0  0  0  0  0  0  0  0  0
   -3.8642    3.6087   -4.6709 C   0  0  0  0  0  0  0  0  0  0  0  0
   -2.6573    4.5404   -4.7780 C   0  0  0  0  0  0  0  0  0  0  0  0
   -1.6136    4.3156   -3.6835 C   0  0  0  0  0  0  0  0  0  0  0  0
   -2.2253    3.6768   -2.4411 C   0  0  0  0  0  0  0  0  0  0  0  0
   -2.7875   -1.0869   -3.1479 C   0  0  0  0  0  0  0  0  0  0  0  0
   -1.8321   -1.8943   -3.7669 C   0  0  0  0  0  0  0  0  0  0  0  0
   -0.6578   -2.2750   -3.0653 C   0  0  0  0  0  0  0  0  0  0  0  0
    0.3028   -3.0075   -3.8094 C   0  0  0  0  0  0  0  0  0  0  0  0
    0.0918   -3.3985   -5.1343 C   0  0  0  0  0  0  0  0  0  0  0  0
   -1.0877   -3.0550   -5.7738 C   0  0  0  0  0  0  0  0  0  0  0  0
   -2.0409   -2.3023   -5.0948 C   0  0  0  0  0  0  0  0  0  0  0  0
   -1.1073    2.2939    0.3685 H   0  0  0  0  0  0  0  0  0  0  0  0
    3.7225   -1.0329   -1.6730 H   0  0  0  0  0  0  0  0  0  0  0  0
    6.6307   -0.1300   -1.7077 H   0  0  0  0  0  0  0  0  0  0  0  0
    6.0533   -1.7746   -1.4703 H   0  0  0  0  0  0  0  0  0  0  0  0
    6.7305   -1.3242   -3.8299 H   0  0  0  0  0  0  0  0  0  0  0  0
    5.0403   -1.8044   -3.7022 H   0  0  0  0  0  0  0  0  0  0  0  0
    5.2333    0.0910   -5.2464 H   0  0  0  0  0  0  0  0  0  0  0  0
    6.1122    1.0379   -4.0483 H   0  0  0  0  0  0  0  0  0  0  0  0
    3.1978    0.1282   -3.8771 H   0  0  0  0  0  0  0  0  0  0  0  0
    3.7752    1.7759   -4.1131 H   0  0  0  0  0  0  0  0  0  0  0  0
    4.7709    1.8247   -1.8860 H   0  0  0  0  0  0  0  0  0  0  0  0
    3.0822    1.3545   -1.7568 H   0  0  0  0  0  0  0  0  0  0  0  0
    6.0929    1.3373    0.0183 H   0  0  0  0  0  0  0  0  0  0  0  0
    6.3934    1.9719    3.7339 H   0  0  0  0  0  0  0  0  0  0  0  0
    6.7159    3.3567    1.0394 H   0  0  0  0  0  0  0  0  0  0  0  0
    5.4325    3.6997    2.1857 H   0  0  0  0  0  0  0  0  0  0  0  0
    6.8677    4.7515    3.6958 H   0  0  0  0  0  0  0  0  0  0  0  0
    7.6498    5.1296    2.1729 H   0  0  0  0  0  0  0  0  0  0  0  0
    8.5229    3.3036    4.3933 H   0  0  0  0  0  0  0  0  0  0  0  0
    9.4837    4.3855    3.3969 H   0  0  0  0  0  0  0  0  0  0  0  0
    9.2789    2.8015    1.4790 H   0  0  0  0  0  0  0  0  0  0  0  0
   10.0357    2.0349    2.8677 H   0  0  0  0  0  0  0  0  0  0  0  0
    8.2154    0.6420    3.2848 H   0  0  0  0  0  0  0  0  0  0  0  0
    8.1313    0.7965    1.5462 H   0  0  0  0  0  0  0  0  0  0  0  0
    4.8346    0.3432    3.9759 H   0  0  0  0  0  0  0  0  0  0  0  0
    1.9668   -1.7810    2.8444 H   0  0  0  0  0  0  0  0  0  0  0  0
    3.0014    0.1054    4.9923 H   0  0  0  0  0  0  0  0  0  0  0  0
    1.4925    0.1318    4.1143 H   0  0  0  0  0  0  0  0  0  0  0  0
    1.1444   -0.7935    6.3656 H   0  0  0  0  0  0  0  0  0  0  0  0
    0.8516   -2.0427    5.1661 H   0  0  0  0  0  0  0  0  0  0  0  0
    2.2119   -3.2677    6.5368 H   0  0  0  0  0  0  0  0  0  0  0  0
    2.9965   -1.8616    7.2298 H   0  0  0  0  0  0  0  0  0  0  0  0
    4.6338   -1.7337    5.5654 H   0  0  0  0  0  0  0  0  0  0  0  0
    4.4248   -3.4661    5.7564 H   0  0  0  0  0  0  0  0  0  0  0  0
    2.9218   -3.5358    3.8030 H   0  0  0  0  0  0  0  0  0  0  0  0
    4.4877   -2.8806    3.3680 H   0  0  0  0  0  0  0  0  0  0  0  0
    3.9344   -3.4875    0.9329 H   0  0  0  0  0  0  0  0  0  0  0  0
   -0.8798   -4.5866   -1.5854 H   0  0  0  0  0  0  0  0  0  0  0  0
   -0.2632   -6.9276   -1.3363 H   0  0  0  0  0  0  0  0  0  0  0  0
    1.8901   -7.5555   -0.2725 H   0  0  0  0  0  0  0  0  0  0  0  0
    3.3999   -5.8057    0.5625 H   0  0  0  0  0  0  0  0  0  0  0  0
   -3.7713   -2.1981   -0.3893 H   0  0  0  0  0  0  0  0  0  0  0  0
   -6.1285   -2.1972   -1.2297 H   0  0  0  0  0  0  0  0  0  0  0  0
   -6.6833   -1.9077    0.4100 H   0  0  0  0  0  0  0  0  0  0  0  0
   -5.4532   -4.3842   -0.7687 H   0  0  0  0  0  0  0  0  0  0  0  0
   -6.8077   -4.2076    0.3307 H   0  0  0  0  0  0  0  0  0  0  0  0
   -5.2304   -5.1033    1.7851 H   0  0  0  0  0  0  0  0  0  0  0  0
   -3.8686   -4.4275    0.9044 H   0  0  0  0  0  0  0  0  0  0  0  0
   -4.1364   -3.3526    3.1417 H   0  0  0  0  0  0  0  0  0  0  0  0
   -5.7587   -2.8390    2.7006 H   0  0  0  0  0  0  0  0  0  0  0  0
   -4.5322   -0.9242    2.2466 H   0  0  0  0  0  0  0  0  0  0  0  0
   -3.0981   -1.7912    1.7620 H   0  0  0  0  0  0  0  0  0  0  0  0
   -6.1990    0.3088    0.9785 H   0  0  0  0  0  0  0  0  0  0  0  0
   -6.5521    3.9333   -0.0724 H   0  0  0  0  0  0  0  0  0  0  0  0
   -8.2099    2.3925   -1.0509 H   0  0  0  0  0  0  0  0  0  0  0  0
   -8.2695    1.4511    0.4331 H   0  0  0  0  0  0  0  0  0  0  0  0
  -10.1581    2.9937    0.3867 H   0  0  0  0  0  0  0  0  0  0  0  0
   -9.0973    4.3696    0.0945 H   0  0  0  0  0  0  0  0  0  0  0  0
   -9.2070    2.6515    2.6214 H   0  0  0  0  0  0  0  0  0  0  0  0
   -9.7406    4.3233    2.4614 H   0  0  0  0  0  0  0  0  0  0  0  0
   -7.4990    4.1456    3.5523 H   0  0  0  0  0  0  0  0  0  0  0  0
   -7.4427    5.0858    2.0635 H   0  0  0  0  0  0  0  0  0  0  0  0
   -6.5917    2.1782    2.4334 H   0  0  0  0  0  0  0  0  0  0  0  0
   -5.5327    3.5504    2.1371 H   0  0  0  0  0  0  0  0  0  0  0  0
   -4.8375    3.5173   -1.4886 H   0  0  0  0  0  0  0  0  0  0  0  0
   -1.8984    1.6341   -2.8409 H   0  0  0  0  0  0  0  0  0  0  0  0
   -2.7815    1.7762   -4.8735 H   0  0  0  0  0  0  0  0  0  0  0  0
   -4.3633    1.5815   -4.1444 H   0  0  0  0  0  0  0  0  0  0  0  0
   -4.6098    4.0522   -3.9996 H   0  0  0  0  0  0  0  0  0  0  0  0
   -4.3458    3.5214   -5.6516 H   0  0  0  0  0  0  0  0  0  0  0  0
   -3.0116    5.5778   -4.7452 H   0  0  0  0  0  0  0  0  0  0  0  0
   -2.1754    4.4143   -5.7552 H   0  0  0  0  0  0  0  0  0  0  0  0
   -0.8166    3.6663   -4.0676 H   0  0  0  0  0  0  0  0  0  0  0  0
   -1.1393    5.2694   -3.4260 H   0  0  0  0  0  0  0  0  0  0  0  0
   -2.9888    4.3565   -2.0497 H   0  0  0  0  0  0  0  0  0  0  0  0
   -1.4650    3.5996   -1.6577 H   0  0  0  0  0  0  0  0  0  0  0  0
   -3.6944   -0.8116   -3.6848 H   0  0  0  0  0  0  0  0  0  0  0  0
    1.2582   -3.2778   -3.3629 H   0  0  0  0  0  0  0  0  0  0  0  0
    0.8560   -3.9652   -5.6594 H   0  0  0  0  0  0  0  0  0  0  0  0
   -1.2599   -3.3532   -6.8037 H   0  0  0  0  0  0  0  0  0  0  0  0
   -2.9496   -2.0186   -5.6227 H   0  0  0  0  0  0  0  0  0  0  0  0
  2  1  2  0  0  0  0
  3 74  1  0  0  0  0
  3  2  1  0  0  0  0
  4  5  1  0  0  0  0
  4  2  1  0  0  0  0
  5  6  2  0  0  0  0
  6 31  1  0  0  0  0
  6  7  1  0  0  0  0
  7 24  2  0  0  0  0
  8 15  2  0  0  0  0
  8  7  1  0  0  0  0
  9  8  1  0  0  0  0
 10 76  1  0  0  0  0
 10 77  1  0  0  0  0
 10  9  1  0  0  0  0
 11 10  1  0  0  0  0
 12 81  1  0  0  0  0
 12 13  1  0  0  0  0
 12 11  1  0  0  0  0
 13 14  1  0  0  0  0
 14 84  1  0  0  0  0
 14 85  1  0  0  0  0
 14  9  1  0  0  0  0
 15 16  1  0  0  0  0
 16 17  1  0  0  0  0
 16 23  2  0  0  0  0
 17 87  1  0  0  0  0
 18 89  1  0  0  0  0
 18 17  1  0  0  0  0
 18 19  1  0  0  0  0
 19 20  1  0  0  0  0
 19 90  1  0  0  0  0
 20 93  1  0  0  0  0
 20 92  1  0  0  0  0
 21 95  1  0  0  0  0
 21 20  1  0  0  0  0
 22 21  1  0  0  0  0
 22 17  1  0  0  0  0
 22 96  1  0  0  0  0
 23 98  1  0  0  0  0
 24 23  1  0  0  0  0
 24 25  1  0  0  0  0
 25 30  1  0  0  0  0
 25 26  1  0  0  0  0
 26100  1  0  0  0  0
 26 27  1  0  0  0  0
 27 28  1  0  0  0  0
 27102  1  0  0  0  0
 28104  1  0  0  0  0
 28105  1  0  0  0  0
 29106  1  0  0  0  0
 29107  1  0  0  0  0
 29 28  1  0  0  0  0
 30 29  1  0  0  0  0
 31110  1  0  0  0  0
 32 37  1  0  0  0  0
 32 31  2  0  0  0  0
 33 32  1  0  0  0  0
 34 35  2  0  0  0  0
 34 33  1  0  0  0  0
 35 36  1  0  0  0  0
 36113  1  0  0  0  0
 36 37  2  0  0  0  0
 37114  1  0  0  0  0
 38 33  2  0  0  0  0
 38  5  1  0  0  0  0
 39 40  2  0  0  0  0
 39 38  1  0  0  0  0
 40 41  1  0  0  0  0
 41  2  1  0  0  0  0
 42 43  1  0  0  0  0
 42 40  1  0  0  0  0
 43 44  1  0  0  0  0
 44 45  1  0  0  0  0
 44 51  2  0  0  0  0
 45 50  1  0  0  0  0
 46 47  1  0  0  0  0
 46 45  1  0  0  0  0
 46117  1  0  0  0  0
 47119  1  0  0  0  0
 47 48  1  0  0  0  0
 48120  1  0  0  0  0
 48 49  1  0  0  0  0
 49123  1  0  0  0  0
 49122  1  0  0  0  0
 50125  1  0  0  0  0
 50124  1  0  0  0  0
 50 49  1  0  0  0  0
 51126  1  0  0  0  0
 52 51  1  0  0  0  0
 52 53  1  0  0  0  0
 53 58  1  0  0  0  0
 54 53  1  0  0  0  0
 54129  1  0  0  0  0
 54 55  1  0  0  0  0
 55 56  1  0  0  0  0
 56133  1  0  0  0  0
 56 57  1  0  0  0  0
 56132  1  0  0  0  0
 57134  1  0  0  0  0
 58137  1  0  0  0  0
 58136  1  0  0  0  0
 58 57  1  0  0  0  0
 59 52  2  0  0  0  0
 60 43  2  0  0  0  0
 60 59  1  0  0  0  0
 61 66  1  0  0  0  0
 61 60  1  0  0  0  0
 62141  1  0  0  0  0
 62 61  1  0  0  0  0
 63 62  1  0  0  0  0
 63142  1  0  0  0  0
 64144  1  0  0  0  0
 64 63  1  0  0  0  0
 64 65  1  0  0  0  0
 65147  1  0  0  0  0
 65 66  1  0  0  0  0
 66148  1  0  0  0  0
 66149  1  0  0  0  0
 67 42  2  0  0  0  0
 68 67  1  0  0  0  0
 68 69  1  0  0  0  0
 69 39  1  0  0  0  0
 70151  1  0  0  0  0
 70 69  2  0  0  0  0
 71 70  1  0  0  0  0
 72 71  2  0  0  0  0
 72 73  1  0  0  0  0
 73 68  2  0  0  0  0
 75  9  1  0  0  0  0
 78 11  1  0  0  0  0
 79 11  1  0  0  0  0
 80 12  1  0  0  0  0
 82 13  1  0  0  0  0
 83 13  1  0  0  0  0
 86 15  1  0  0  0  0
 88 18  1  0  0  0  0
 91 19  1  0  0  0  0
 94 21  1  0  0  0  0
 97 22  1  0  0  0  0
 99 25  1  0  0  0  0
101 26  1  0  0  0  0
103 27  1  0  0  0  0
108 30  1  0  0  0  0
109 30  1  0  0  0  0
111 34  1  0  0  0  0
112 35  1  0  0  0  0
115 45  1  0  0  0  0
116 46  1  0  0  0  0
118 47  1  0  0  0  0
121 48  1  0  0  0  0
127 53  1  0  0  0  0
128 54  1  0  0  0  0
130 55  1  0  0  0  0
131 55  1  0  0  0  0
135 57  1  0  0  0  0
138 59  1  0  0  0  0
139 61  1  0  0  0  0
140 62  1  0  0  0  0
143 63  1  0  0  0  0
145 64  1  0  0  0  0
146 65  1  0  0  0  0
150 67  1  0  0  0  0
152 71  1  0  0  0  0
153 72  1  0  0  0  0
154 73  1  0  0  0  0
M  END
$$$$
