O=P1(O)OC2=C(C3=CC=C(C4=CC(C(F)(F)F)=CC(C(F)(F)F)=C4)C=C3)C=C5C(C=CC=C5)=C2C6=C(O1)C(C7=CC=C(C8=CC(C(F)(F)F)=CC(C(F)(F)F)=C8)C=C7)=CC9=C6C=CC=C9
 OpenBabel09032010373D

 90 98  0  0  0  0  0  0  0  0999 V2000
    1.1515   -0.8062   -0.0369 O   0  0  0  0  0  0  0  0  0  0  0  0
    0.5308    0.1852   -0.9749 P   0  0  0  0  0  0  0  0  0  0  0  0
    0.2791   -0.4022   -2.4551 O   0  0  0  0  0  0  0  0  0  0  0  0
    1.3970    1.5189   -1.2539 O   0  0  0  0  0  0  0  0  0  0  0  0
    0.8491    2.5735   -1.9693 C   0  0  0  0  0  0  0  0  0  0  0  0
    1.4871    2.9251   -3.1878 C   0  0  0  0  0  0  0  0  0  0  0  0
    2.7032    2.2269   -3.6218 C   0  0  0  0  0  0  0  0  0  0  0  0
    2.6220    1.1459   -4.5084 C   0  0  0  0  0  0  0  0  0  0  0  0
    3.6149    0.1662   -4.4918 C   0  0  0  0  0  0  0  0  0  0  0  0
    4.6555    0.2610   -3.5515 C   0  0  0  0  0  0  0  0  0  0  0  0
    4.9254   -0.9216   -2.7183 C   0  0  0  0  0  0  0  0  0  0  0  0
    3.8677   -1.2561   -1.8534 C   0  0  0  0  0  0  0  0  0  0  0  0
    3.9693   -2.1872   -0.8304 C   0  0  0  0  0  0  0  0  0  0  0  0
    2.7916   -2.3076    0.1139 C   0  0  0  0  0  0  0  0  0  0  0  0
    2.8283   -3.4534    0.8514 F   0  0  0  0  0  0  0  0  0  0  0  0
    1.5903   -2.3145   -0.5269 F   0  0  0  0  0  0  0  0  0  0  0  0
    2.7378   -1.2858    1.0107 F   0  0  0  0  0  0  0  0  0  0  0  0
    5.1796   -2.8722   -0.7083 C   0  0  0  0  0  0  0  0  0  0  0  0
    6.2549   -2.6080   -1.5953 C   0  0  0  0  0  0  0  0  0  0  0  0
    7.5699   -3.3375   -1.4316 C   0  0  0  0  0  0  0  0  0  0  0  0
    7.4246   -4.5971   -0.9348 F   0  0  0  0  0  0  0  0  0  0  0  0
    8.2523   -3.4759   -2.6021 F   0  0  0  0  0  0  0  0  0  0  0  0
    8.4123   -2.6919   -0.5797 F   0  0  0  0  0  0  0  0  0  0  0  0
    6.1247   -1.6081   -2.5876 C   0  0  0  0  0  0  0  0  0  0  0  0
    4.9103    1.5023   -2.9474 C   0  0  0  0  0  0  0  0  0  0  0  0
    3.9148    2.4759   -2.9614 C   0  0  0  0  0  0  0  0  0  0  0  0
    0.9407    3.9460   -3.9570 C   0  0  0  0  0  0  0  0  0  0  0  0
   -0.2195    4.6059   -3.5471 C   0  0  0  0  0  0  0  0  0  0  0  0
   -0.8317    4.2828   -2.3030 C   0  0  0  0  0  0  0  0  0  0  0  0
   -2.0449    4.9555   -2.0097 C   0  0  0  0  0  0  0  0  0  0  0  0
   -2.5933    5.9212   -2.8577 C   0  0  0  0  0  0  0  0  0  0  0  0
   -1.9524    6.2419   -4.0432 C   0  0  0  0  0  0  0  0  0  0  0  0
   -0.7746    5.5853   -4.3863 C   0  0  0  0  0  0  0  0  0  0  0  0
   -0.2515    3.2851   -1.4370 C   0  0  0  0  0  0  0  0  0  0  0  0
   -0.7138    3.0253   -0.0866 C   0  0  0  0  0  0  0  0  0  0  0  0
   -1.0806    1.7144    0.3121 C   0  0  0  0  0  0  0  0  0  0  0  0
   -0.9525    0.6840   -0.5897 O   0  0  0  0  0  0  0  0  0  0  0  0
   -1.6737    1.4125    1.5505 C   0  0  0  0  0  0  0  0  0  0  0  0
   -2.1297    0.0624    1.9095 C   0  0  0  0  0  0  0  0  0  0  0  0
   -3.4957   -0.2528    1.9099 C   0  0  0  0  0  0  0  0  0  0  0  0
   -3.9399   -1.5262    2.2845 C   0  0  0  0  0  0  0  0  0  0  0  0
   -3.0331   -2.5250    2.6708 C   0  0  0  0  0  0  0  0  0  0  0  0
   -3.5017   -3.8607    3.0761 C   0  0  0  0  0  0  0  0  0  0  0  0
   -4.4764   -4.0101    4.0765 C   0  0  0  0  0  0  0  0  0  0  0  0
   -4.9357   -5.2769    4.4754 C   0  0  0  0  0  0  0  0  0  0  0  0
   -5.9642   -5.4069    5.5733 C   0  0  0  0  0  0  0  0  0  0  0  0
   -6.7496   -4.3022    5.7067 F   0  0  0  0  0  0  0  0  0  0  0  0
   -6.8184   -6.4488    5.3757 F   0  0  0  0  0  0  0  0  0  0  0  0
   -5.3949   -5.6137    6.7917 F   0  0  0  0  0  0  0  0  0  0  0  0
   -4.3946   -6.4182    3.8644 C   0  0  0  0  0  0  0  0  0  0  0  0
   -3.4256   -6.3030    2.8562 C   0  0  0  0  0  0  0  0  0  0  0  0
   -2.8328   -7.5327    2.2109 C   0  0  0  0  0  0  0  0  0  0  0  0
   -3.7117   -8.5714    2.1412 F   0  0  0  0  0  0  0  0  0  0  0  0
   -1.7530   -8.0023    2.8938 F   0  0  0  0  0  0  0  0  0  0  0  0
   -2.4077   -7.3180    0.9354 F   0  0  0  0  0  0  0  0  0  0  0  0
   -2.9853   -5.0224    2.4792 C   0  0  0  0  0  0  0  0  0  0  0  0
   -1.6667   -2.2066    2.6635 C   0  0  0  0  0  0  0  0  0  0  0  0
   -1.2221   -0.9318    2.2927 C   0  0  0  0  0  0  0  0  0  0  0  0
   -1.8517    2.4550    2.4621 C   0  0  0  0  0  0  0  0  0  0  0  0
   -1.4338    3.7565    2.1742 C   0  0  0  0  0  0  0  0  0  0  0  0
   -0.8476    4.0552    0.9155 C   0  0  0  0  0  0  0  0  0  0  0  0
   -0.3749    5.3829    0.7470 C   0  0  0  0  0  0  0  0  0  0  0  0
   -0.5273    6.3676    1.7274 C   0  0  0  0  0  0  0  0  0  0  0  0
   -1.1449    6.0556    2.9272 C   0  0  0  0  0  0  0  0  0  0  0  0
   -1.5886    4.7558    3.1505 C   0  0  0  0  0  0  0  0  0  0  0  0
   -0.1998    0.2297   -3.0177 H   0  0  0  0  0  0  0  0  0  0  0  0
    1.7111    0.9583   -5.0722 H   0  0  0  0  0  0  0  0  0  0  0  0
    3.4193   -0.7789   -4.9967 H   0  0  0  0  0  0  0  0  0  0  0  0
    2.9344   -0.7060   -1.9465 H   0  0  0  0  0  0  0  0  0  0  0  0
    5.2990   -3.6044    0.0906 H   0  0  0  0  0  0  0  0  0  0  0  0
    6.9682   -1.3578   -3.2285 H   0  0  0  0  0  0  0  0  0  0  0  0
    5.7291    1.6112   -2.2374 H   0  0  0  0  0  0  0  0  0  0  0  0
    4.0143    3.3373   -2.3031 H   0  0  0  0  0  0  0  0  0  0  0  0
    1.4199    4.2159   -4.8975 H   0  0  0  0  0  0  0  0  0  0  0  0
   -2.6015    4.7235   -1.1028 H   0  0  0  0  0  0  0  0  0  0  0  0
   -3.5232    6.4148   -2.5869 H   0  0  0  0  0  0  0  0  0  0  0  0
   -2.3728    6.9908   -4.7084 H   0  0  0  0  0  0  0  0  0  0  0  0
   -0.2964    5.8399   -5.3307 H   0  0  0  0  0  0  0  0  0  0  0  0
   -4.2280    0.4958    1.6141 H   0  0  0  0  0  0  0  0  0  0  0  0
   -5.0079   -1.7338    2.2615 H   0  0  0  0  0  0  0  0  0  0  0  0
   -4.8794   -3.1227    4.5670 H   0  0  0  0  0  0  0  0  0  0  0  0
   -4.7345   -7.4079    4.1750 H   0  0  0  0  0  0  0  0  0  0  0  0
   -2.2310   -4.9301    1.6957 H   0  0  0  0  0  0  0  0  0  0  0  0
   -0.9258   -2.9467    2.9606 H   0  0  0  0  0  0  0  0  0  0  0  0
   -0.1531   -0.7243    2.3094 H   0  0  0  0  0  0  0  0  0  0  0  0
   -2.3041    2.2337    3.4289 H   0  0  0  0  0  0  0  0  0  0  0  0
    0.1434    5.6746   -0.1647 H   0  0  0  0  0  0  0  0  0  0  0  0
   -0.1548    7.3729    1.5484 H   0  0  0  0  0  0  0  0  0  0  0  0
   -1.2659    6.8144    3.6955 H   0  0  0  0  0  0  0  0  0  0  0  0
   -2.0489    4.5231    4.1094 H   0  0  0  0  0  0  0  0  0  0  0  0
  2 37  1  0  0  0  0
  2  1  2  0  0  0  0
  3  2  1  0  0  0  0
  4  2  1  0  0  0  0
  5 34  1  0  0  0  0
  5  4  1  0  0  0  0
  6  5  2  0  0  0  0
  7  6  1  0  0  0  0
  7 26  2  0  0  0  0
  8  9  2  0  0  0  0
  8  7  1  0  0  0  0
  9 10  1  0  0  0  0
 10 25  2  0  0  0  0
 10 11  1  0  0  0  0
 11 24  2  0  0  0  0
 11 12  1  0  0  0  0
 12 13  2  0  0  0  0
 13 18  1  0  0  0  0
 13 14  1  0  0  0  0
 14 15  1  0  0  0  0
 14 17  1  0  0  0  0
 16 14  1  0  0  0  0
 18 70  1  0  0  0  0
 19 20  1  0  0  0  0
 19 18  2  0  0  0  0
 20 21  1  0  0  0  0
 20 23  1  0  0  0  0
 22 20  1  0  0  0  0
 24 19  1  0  0  0  0
 25 72  1  0  0  0  0
 26 25  1  0  0  0  0
 26 73  1  0  0  0  0
 27 28  2  0  0  0  0
 27  6  1  0  0  0  0
 28 29  1  0  0  0  0
 29 30  1  0  0  0  0
 29 34  2  0  0  0  0
 30 75  1  0  0  0  0
 31 76  1  0  0  0  0
 31 30  2  0  0  0  0
 32 31  1  0  0  0  0
 33 32  2  0  0  0  0
 33 28  1  0  0  0  0
 34 35  1  0  0  0  0
 35 36  2  0  0  0  0
 35 61  1  0  0  0  0
 36 38  1  0  0  0  0
 37 36  1  0  0  0  0
 38 39  1  0  0  0  0
 38 59  2  0  0  0  0
 39 40  2  0  0  0  0
 39 58  1  0  0  0  0
 40 41  1  0  0  0  0
 41 42  2  0  0  0  0
 42 43  1  0  0  0  0
 43 44  2  0  0  0  0
 44 45  1  0  0  0  0
 44 81  1  0  0  0  0
 45 46  1  0  0  0  0
 46 47  1  0  0  0  0
 46 49  1  0  0  0  0
 48 46  1  0  0  0  0
 50 82  1  0  0  0  0
 50 45  2  0  0  0  0
 51 50  1  0  0  0  0
 52 51  1  0  0  0  0
 52 54  1  0  0  0  0
 53 52  1  0  0  0  0
 55 52  1  0  0  0  0
 56 51  2  0  0  0  0
 56 43  1  0  0  0  0
 57 42  1  0  0  0  0
 57 84  1  0  0  0  0
 58 85  1  0  0  0  0
 58 57  2  0  0  0  0
 59 86  1  0  0  0  0
 60 59  1  0  0  0  0
 60 65  2  0  0  0  0
 61 60  1  0  0  0  0
 62 61  2  0  0  0  0
 62 63  1  0  0  0  0
 63 64  2  0  0  0  0
 64 65  1  0  0  0  0
 64 89  1  0  0  0  0
 65 90  1  0  0  0  0
 66  3  1  0  0  0  0
 67  8  1  0  0  0  0
 68  9  1  0  0  0  0
 69 12  1  0  0  0  0
 71 24  1  0  0  0  0
 74 27  1  0  0  0  0
 77 32  1  0  0  0  0
 78 33  1  0  0  0  0
 79 40  1  0  0  0  0
 80 41  1  0  0  0  0
 83 56  1  0  0  0  0
 87 62  1  0  0  0  0
 88 63  1  0  0  0  0
M  END
$$$$
