O=P1(O)OC2=C(C3=CC(C)=C(OC(C)C)C(C)=C3)C=C4C(C=CC=C4)=C2C5=C(O1)C(C6=CC(C)=C(OC(C)C)C(C)=C6)=CC7=C5C=CC=C7
 OpenBabel09032010373D

 90 96  0  0  0  0  0  0  0  0999 V2000
    0.5968    0.6581    1.5780 O   0  0  0  0  0  0  0  0  0  0  0  0
   -0.0056    0.1556    0.3032 P   0  0  0  0  0  0  0  0  0  0  0  0
   -0.9598    1.2617   -0.3722 O   0  0  0  0  0  0  0  0  0  0  0  0
    1.0176   -0.2327   -0.8787 O   0  0  0  0  0  0  0  0  0  0  0  0
    1.6294   -1.4654   -0.8033 C   0  0  0  0  0  0  0  0  0  0  0  0
    3.0128   -1.4754   -0.5603 C   0  0  0  0  0  0  0  0  0  0  0  0
    3.7900   -0.2417   -0.3907 C   0  0  0  0  0  0  0  0  0  0  0  0
    4.4894    0.3149   -1.4702 C   0  0  0  0  0  0  0  0  0  0  0  0
    5.2463    1.4884   -1.3234 C   0  0  0  0  0  0  0  0  0  0  0  0
    5.9860    2.0245   -2.5159 C   0  0  0  0  0  0  0  0  0  0  0  0
    5.2539    2.1404   -0.0799 C   0  0  0  0  0  0  0  0  0  0  0  0
    5.9729    3.3039    0.0430 O   0  0  0  0  0  0  0  0  0  0  0  0
    5.1345    4.4706    0.1376 C   0  0  0  0  0  0  0  0  0  0  0  0
    5.8135    5.4355    1.1060 C   0  0  0  0  0  0  0  0  0  0  0  0
    4.9985    5.1232   -1.2352 C   0  0  0  0  0  0  0  0  0  0  0  0
    4.6225    1.5636    1.0351 C   0  0  0  0  0  0  0  0  0  0  0  0
    4.7023    2.1679    2.4074 C   0  0  0  0  0  0  0  0  0  0  0  0
    3.8744    0.3885    0.8576 C   0  0  0  0  0  0  0  0  0  0  0  0
    3.6583   -2.7107   -0.4925 C   0  0  0  0  0  0  0  0  0  0  0  0
    2.9529   -3.9093   -0.6291 C   0  0  0  0  0  0  0  0  0  0  0  0
    1.5552   -3.8905   -0.8840 C   0  0  0  0  0  0  0  0  0  0  0  0
    0.9078   -5.1523   -0.9166 C   0  0  0  0  0  0  0  0  0  0  0  0
    1.6012   -6.3573   -0.7734 C   0  0  0  0  0  0  0  0  0  0  0  0
    2.9719   -6.3445   -0.5728 C   0  0  0  0  0  0  0  0  0  0  0  0
    3.6413   -5.1269   -0.4946 C   0  0  0  0  0  0  0  0  0  0  0  0
    0.8628   -2.6345   -1.0417 C   0  0  0  0  0  0  0  0  0  0  0  0
   -0.5267   -2.5205   -1.4405 C   0  0  0  0  0  0  0  0  0  0  0  0
   -1.4325   -1.7606   -0.6587 C   0  0  0  0  0  0  0  0  0  0  0  0
   -0.9761   -1.1183    0.4714 O   0  0  0  0  0  0  0  0  0  0  0  0
   -2.8103   -1.6604   -0.9232 C   0  0  0  0  0  0  0  0  0  0  0  0
   -3.7162   -0.8639   -0.0795 C   0  0  0  0  0  0  0  0  0  0  0  0
   -4.3269    0.2951   -0.5819 C   0  0  0  0  0  0  0  0  0  0  0  0
   -5.1884    1.0735    0.2085 C   0  0  0  0  0  0  0  0  0  0  0  0
   -5.8489    2.2756   -0.4041 C   0  0  0  0  0  0  0  0  0  0  0  0
   -5.3976    0.7044    1.5479 C   0  0  0  0  0  0  0  0  0  0  0  0
   -6.2178    1.4467    2.3608 O   0  0  0  0  0  0  0  0  0  0  0  0
   -5.5976    2.6571    2.8323 C   0  0  0  0  0  0  0  0  0  0  0  0
   -6.6840    3.7277    2.8868 C   0  0  0  0  0  0  0  0  0  0  0  0
   -5.0175    2.4339    4.2259 C   0  0  0  0  0  0  0  0  0  0  0  0
   -4.8579   -0.4888    2.0532 C   0  0  0  0  0  0  0  0  0  0  0  0
   -5.1361   -0.9692    3.4494 C   0  0  0  0  0  0  0  0  0  0  0  0
   -4.0002   -1.2462    1.2388 C   0  0  0  0  0  0  0  0  0  0  0  0
   -3.3098   -2.3347   -2.0379 C   0  0  0  0  0  0  0  0  0  0  0  0
   -2.4703   -3.0570   -2.8908 C   0  0  0  0  0  0  0  0  0  0  0  0
   -1.0770   -3.1397   -2.6226 C   0  0  0  0  0  0  0  0  0  0  0  0
   -0.2920   -3.8026   -3.6013 C   0  0  0  0  0  0  0  0  0  0  0  0
   -0.8492   -4.4072   -4.7314 C   0  0  0  0  0  0  0  0  0  0  0  0
   -2.2177   -4.3540   -4.9374 C   0  0  0  0  0  0  0  0  0  0  0  0
   -3.0211   -3.6759   -4.0259 C   0  0  0  0  0  0  0  0  0  0  0  0
   -1.5078    1.6902    0.3097 H   0  0  0  0  0  0  0  0  0  0  0  0
    4.4440   -0.1755   -2.4417 H   0  0  0  0  0  0  0  0  0  0  0  0
    6.3823    1.2025   -3.1223 H   0  0  0  0  0  0  0  0  0  0  0  0
    6.8430    2.6379   -2.2211 H   0  0  0  0  0  0  0  0  0  0  0  0
    5.3151    2.6238   -3.1381 H   0  0  0  0  0  0  0  0  0  0  0  0
    4.1338    4.2353    0.5210 H   0  0  0  0  0  0  0  0  0  0  0  0
    5.2355    6.3578    1.2193 H   0  0  0  0  0  0  0  0  0  0  0  0
    6.8214    5.6928    0.7616 H   0  0  0  0  0  0  0  0  0  0  0  0
    5.9275    4.9759    2.0929 H   0  0  0  0  0  0  0  0  0  0  0  0
    5.9796    5.2852   -1.6946 H   0  0  0  0  0  0  0  0  0  0  0  0
    4.4293    4.4797   -1.9125 H   0  0  0  0  0  0  0  0  0  0  0  0
    4.4764    6.0829   -1.1690 H   0  0  0  0  0  0  0  0  0  0  0  0
    4.5216    1.4132    3.1808 H   0  0  0  0  0  0  0  0  0  0  0  0
    5.6999    2.5761    2.5964 H   0  0  0  0  0  0  0  0  0  0  0  0
    3.9554    2.9589    2.5209 H   0  0  0  0  0  0  0  0  0  0  0  0
    3.3496   -0.0443    1.7090 H   0  0  0  0  0  0  0  0  0  0  0  0
    4.7312   -2.7304   -0.3014 H   0  0  0  0  0  0  0  0  0  0  0  0
   -0.1716   -5.2158   -1.0440 H   0  0  0  0  0  0  0  0  0  0  0  0
    1.0622   -7.3002   -0.8135 H   0  0  0  0  0  0  0  0  0  0  0  0
    3.5182   -7.2769   -0.4594 H   0  0  0  0  0  0  0  0  0  0  0  0
    4.7145   -5.1363   -0.3118 H   0  0  0  0  0  0  0  0  0  0  0  0
   -4.1292    0.5944   -1.6111 H   0  0  0  0  0  0  0  0  0  0  0  0
   -6.8802    2.3757   -0.0518 H   0  0  0  0  0  0  0  0  0  0  0  0
   -5.2893    3.1837   -0.1622 H   0  0  0  0  0  0  0  0  0  0  0  0
   -5.8977    2.1846   -1.4948 H   0  0  0  0  0  0  0  0  0  0  0  0
   -4.7985    3.0021    2.1642 H   0  0  0  0  0  0  0  0  0  0  0  0
   -6.2861    4.6803    3.2500 H   0  0  0  0  0  0  0  0  0  0  0  0
   -7.1163    3.8899    1.8943 H   0  0  0  0  0  0  0  0  0  0  0  0
   -7.5071    3.4188    3.5408 H   0  0  0  0  0  0  0  0  0  0  0  0
   -4.6563    3.3712    4.6608 H   0  0  0  0  0  0  0  0  0  0  0  0
   -4.1741    1.7382    4.1848 H   0  0  0  0  0  0  0  0  0  0  0  0
   -5.7628    1.9959    4.8987 H   0  0  0  0  0  0  0  0  0  0  0  0
   -5.1993   -2.0627    3.4732 H   0  0  0  0  0  0  0  0  0  0  0  0
   -6.0914   -0.5919    3.8270 H   0  0  0  0  0  0  0  0  0  0  0  0
   -4.3353   -0.6521    4.1237 H   0  0  0  0  0  0  0  0  0  0  0  0
   -3.5516   -2.1559    1.6368 H   0  0  0  0  0  0  0  0  0  0  0  0
   -4.3764   -2.2751   -2.2527 H   0  0  0  0  0  0  0  0  0  0  0  0
    0.7913   -3.8472   -3.5036 H   0  0  0  0  0  0  0  0  0  0  0  0
   -0.2061   -4.9111   -5.4482 H   0  0  0  0  0  0  0  0  0  0  0  0
   -2.6585   -4.8208   -5.8138 H   0  0  0  0  0  0  0  0  0  0  0  0
   -4.0910   -3.6214   -4.2196 H   0  0  0  0  0  0  0  0  0  0  0  0
  2 29  1  0  0  0  0
  2  1  2  0  0  0  0
  3  2  1  0  0  0  0
  3 50  1  0  0  0  0
  4  5  1  0  0  0  0
  4  2  1  0  0  0  0
  5  6  2  0  0  0  0
  6 19  1  0  0  0  0
  6  7  1  0  0  0  0
  7 18  2  0  0  0  0
  8  9  2  0  0  0  0
  8  7  1  0  0  0  0
  9 11  1  0  0  0  0
 10 53  1  0  0  0  0
 10  9  1  0  0  0  0
 11 12  1  0  0  0  0
 11 16  2  0  0  0  0
 12 13  1  0  0  0  0
 13 55  1  0  0  0  0
 13 14  1  0  0  0  0
 14 56  1  0  0  0  0
 14 58  1  0  0  0  0
 15 61  1  0  0  0  0
 15 13  1  0  0  0  0
 16 17  1  0  0  0  0
 17 64  1  0  0  0  0
 17 63  1  0  0  0  0
 17 62  1  0  0  0  0
 18 16  1  0  0  0  0
 18 65  1  0  0  0  0
 19 66  1  0  0  0  0
 20 25  1  0  0  0  0
 20 19  2  0  0  0  0
 21 20  1  0  0  0  0
 22 21  1  0  0  0  0
 22 23  2  0  0  0  0
 23 24  1  0  0  0  0
 24 25  2  0  0  0  0
 24 69  1  0  0  0  0
 25 70  1  0  0  0  0
 26 21  2  0  0  0  0
 26  5  1  0  0  0  0
 27 26  1  0  0  0  0
 27 28  2  0  0  0  0
 28 29  1  0  0  0  0
 30 28  1  0  0  0  0
 30 31  1  0  0  0  0
 31 42  1  0  0  0  0
 32 31  2  0  0  0  0
 32 33  1  0  0  0  0
 33 35  2  0  0  0  0
 34 73  1  0  0  0  0
 34 72  1  0  0  0  0
 34 33  1  0  0  0  0
 35 40  1  0  0  0  0
 35 36  1  0  0  0  0
 36 37  1  0  0  0  0
 37 38  1  0  0  0  0
 37 39  1  0  0  0  0
 38 76  1  0  0  0  0
 38 78  1  0  0  0  0
 39 79  1  0  0  0  0
 39 81  1  0  0  0  0
 40 41  1  0  0  0  0
 41 82  1  0  0  0  0
 41 83  1  0  0  0  0
 41 84  1  0  0  0  0
 42 85  1  0  0  0  0
 42 40  2  0  0  0  0
 43 30  2  0  0  0  0
 44 45  1  0  0  0  0
 44 43  1  0  0  0  0
 45 27  1  0  0  0  0
 46 87  1  0  0  0  0
 46 45  2  0  0  0  0
 47 46  1  0  0  0  0
 48 47  2  0  0  0  0
 48 49  1  0  0  0  0
 49 44  2  0  0  0  0
 51  8  1  0  0  0  0
 52 10  1  0  0  0  0
 54 10  1  0  0  0  0
 57 14  1  0  0  0  0
 59 15  1  0  0  0  0
 60 15  1  0  0  0  0
 67 22  1  0  0  0  0
 68 23  1  0  0  0  0
 71 32  1  0  0  0  0
 74 34  1  0  0  0  0
 75 37  1  0  0  0  0
 77 38  1  0  0  0  0
 80 39  1  0  0  0  0
 86 43  1  0  0  0  0
 88 47  1  0  0  0  0
 89 48  1  0  0  0  0
 90 49  1  0  0  0  0
M  END
$$$$
