O=P1(O)OC2=C(C3=CC=CC=C3)C=C4C(C=CC=C4)=C2C5=C(O1)C(C6=CC=CC=C6)=CC7=C5C=CC=C7
 OpenBabel09032010373D

 58 64  0  0  0  0  0  0  0  0999 V2000
    0.7960   -3.0370   -1.4150 O   0  0  0  0  0  0  0  0  0  0  0  0
    0.0035   -2.1689   -0.4892 P   0  0  0  0  0  0  0  0  0  0  0  0
   -1.1011   -3.0148    0.3194 O   0  0  0  0  0  0  0  0  0  0  0  0
   -0.8658   -1.0230   -1.2145 O   0  0  0  0  0  0  0  0  0  0  0  0
   -1.4704   -0.0552   -0.4413 C   0  0  0  0  0  0  0  0  0  0  0  0
   -2.8763   -0.0763   -0.3944 C   0  0  0  0  0  0  0  0  0  0  0  0
   -3.6700   -1.1123   -1.0773 C   0  0  0  0  0  0  0  0  0  0  0  0
   -4.4610   -2.0094   -0.3404 C   0  0  0  0  0  0  0  0  0  0  0  0
   -5.2025   -3.0055   -0.9801 C   0  0  0  0  0  0  0  0  0  0  0  0
   -5.1647   -3.1188   -2.3677 C   0  0  0  0  0  0  0  0  0  0  0  0
   -4.3875   -2.2375   -3.1156 C   0  0  0  0  0  0  0  0  0  0  0  0
   -3.6470   -1.2416   -2.4748 C   0  0  0  0  0  0  0  0  0  0  0  0
   -3.5159    0.9186    0.3467 C   0  0  0  0  0  0  0  0  0  0  0  0
   -2.7920    1.8839    1.0533 C   0  0  0  0  0  0  0  0  0  0  0  0
   -1.3715    1.8855    1.0112 C   0  0  0  0  0  0  0  0  0  0  0  0
   -0.7228    2.8334    1.8435 C   0  0  0  0  0  0  0  0  0  0  0  0
   -1.4247    3.7664    2.6117 C   0  0  0  0  0  0  0  0  0  0  0  0
   -2.8097    3.7736    2.5911 C   0  0  0  0  0  0  0  0  0  0  0  0
   -3.4879    2.8325    1.8222 C   0  0  0  0  0  0  0  0  0  0  0  0
   -0.6684    0.9225    0.1994 C   0  0  0  0  0  0  0  0  0  0  0  0
    0.7703    0.9099    0.0250 C   0  0  0  0  0  0  0  0  0  0  0  0
    1.5047   -0.2691    0.3089 C   0  0  0  0  0  0  0  0  0  0  0  0
    0.8216   -1.4098    0.6726 O   0  0  0  0  0  0  0  0  0  0  0  0
    2.9074   -0.3451    0.2870 C   0  0  0  0  0  0  0  0  0  0  0  0
    3.6347   -1.5729    0.6410 C   0  0  0  0  0  0  0  0  0  0  0  0
    3.6322   -2.0557    1.9592 C   0  0  0  0  0  0  0  0  0  0  0  0
    4.3279   -3.2184    2.2974 C   0  0  0  0  0  0  0  0  0  0  0  0
    5.0353   -3.9160    1.3211 C   0  0  0  0  0  0  0  0  0  0  0  0
    5.0463   -3.4531    0.0072 C   0  0  0  0  0  0  0  0  0  0  0  0
    4.3516   -2.2892   -0.3300 C   0  0  0  0  0  0  0  0  0  0  0  0
    3.6152    0.7998   -0.0829 C   0  0  0  0  0  0  0  0  0  0  0  0
    2.9587    1.9788   -0.4492 C   0  0  0  0  0  0  0  0  0  0  0  0
    1.5398    2.0450   -0.4204 C   0  0  0  0  0  0  0  0  0  0  0  0
    0.9583    3.2467   -0.8989 C   0  0  0  0  0  0  0  0  0  0  0  0
    1.7244    4.3389   -1.3151 C   0  0  0  0  0  0  0  0  0  0  0  0
    3.1073    4.2621   -1.2853 C   0  0  0  0  0  0  0  0  0  0  0  0
    3.7194    3.0861   -0.8614 C   0  0  0  0  0  0  0  0  0  0  0  0
   -1.5483   -3.6393   -0.2804 H   0  0  0  0  0  0  0  0  0  0  0  0
   -4.4933   -1.9429    0.7458 H   0  0  0  0  0  0  0  0  0  0  0  0
   -5.8088   -3.6911   -0.3937 H   0  0  0  0  0  0  0  0  0  0  0  0
   -5.7428   -3.8921   -2.8670 H   0  0  0  0  0  0  0  0  0  0  0  0
   -4.3559   -2.3222   -4.1988 H   0  0  0  0  0  0  0  0  0  0  0  0
   -3.0437   -0.5625   -3.0750 H   0  0  0  0  0  0  0  0  0  0  0  0
   -4.6049    0.9249    0.3866 H   0  0  0  0  0  0  0  0  0  0  0  0
    0.3630    2.8509    1.9183 H   0  0  0  0  0  0  0  0  0  0  0  0
   -0.8814    4.4781    3.2276 H   0  0  0  0  0  0  0  0  0  0  0  0
   -3.3632    4.4952    3.1856 H   0  0  0  0  0  0  0  0  0  0  0  0
   -4.5763    2.8365    1.8405 H   0  0  0  0  0  0  0  0  0  0  0  0
    3.0797   -1.5251    2.7320 H   0  0  0  0  0  0  0  0  0  0  0  0
    4.3118   -3.5793    3.3221 H   0  0  0  0  0  0  0  0  0  0  0  0
    5.5724   -4.8237    1.5822 H   0  0  0  0  0  0  0  0  0  0  0  0
    5.5878   -4.0010   -0.7592 H   0  0  0  0  0  0  0  0  0  0  0  0
    4.3578   -1.9514   -1.3644 H   0  0  0  0  0  0  0  0  0  0  0  0
    4.7041    0.7593   -0.0998 H   0  0  0  0  0  0  0  0  0  0  0  0
   -0.1234    3.3471   -0.9677 H   0  0  0  0  0  0  0  0  0  0  0  0
    1.2328    5.2420   -1.6666 H   0  0  0  0  0  0  0  0  0  0  0  0
    3.7108    5.1062   -1.6072 H   0  0  0  0  0  0  0  0  0  0  0  0
    4.8068    3.0360   -0.8689 H   0  0  0  0  0  0  0  0  0  0  0  0
  1  2  2  0  0  0  0
  2  3  1  0  0  0  0
  2 23  1  0  0  0  0
  4  2  1  0  0  0  0
  4  5  1  0  0  0  0
  5  6  2  0  0  0  0
  5 20  1  0  0  0  0
  6 13  1  0  0  0  0
  7  6  1  0  0  0  0
  7  8  2  0  0  0  0
  8 39  1  0  0  0  0
  9 40  1  0  0  0  0
  9  8  1  0  0  0  0
 10  9  2  0  0  0  0
 11 12  2  0  0  0  0
 11 10  1  0  0  0  0
 12  7  1  0  0  0  0
 13 44  1  0  0  0  0
 13 14  2  0  0  0  0
 14 19  1  0  0  0  0
 15 14  1  0  0  0  0
 15 16  1  0  0  0  0
 16 45  1  0  0  0  0
 16 17  2  0  0  0  0
 17 46  1  0  0  0  0
 18 17  1  0  0  0  0
 18 47  1  0  0  0  0
 19 48  1  0  0  0  0
 19 18  2  0  0  0  0
 20 15  2  0  0  0  0
 21 20  1  0  0  0  0
 21 22  2  0  0  0  0
 22 23  1  0  0  0  0
 24 22  1  0  0  0  0
 24 25  1  0  0  0  0
 25 26  2  0  0  0  0
 26 27  1  0  0  0  0
 26 49  1  0  0  0  0
 27 50  1  0  0  0  0
 28 51  1  0  0  0  0
 28 27  2  0  0  0  0
 29 28  1  0  0  0  0
 30 29  2  0  0  0  0
 30 25  1  0  0  0  0
 31 24  2  0  0  0  0
 32 33  1  0  0  0  0
 32 31  1  0  0  0  0
 33 21  1  0  0  0  0
 34 33  2  0  0  0  0
 35 36  2  0  0  0  0
 35 34  1  0  0  0  0
 36 37  1  0  0  0  0
 37 32  2  0  0  0  0
 38  3  1  0  0  0  0
 41 10  1  0  0  0  0
 42 11  1  0  0  0  0
 43 12  1  0  0  0  0
 52 29  1  0  0  0  0
 53 30  1  0  0  0  0
 54 31  1  0  0  0  0
 55 34  1  0  0  0  0
 56 35  1  0  0  0  0
 57 36  1  0  0  0  0
 58 37  1  0  0  0  0
M  END
$$$$
