O=P1(O)OC2=C(Br)C=C3C(CCCC3)=C2C4=C(O1)C(Br)=CC5=C4CCCC5
 OpenBabel09032010373D

 46 50  0  0  0  0  0  0  0  0999 V2000
    1.6993    4.8422    0.2508 O   0  0  0  0  0  0  0  0  0  0  0  0
    0.5434    3.9642   -0.1132 P   0  0  0  0  0  0  0  0  0  0  0  0
   -0.6851    4.8479   -0.6586 O   0  0  0  0  0  0  0  0  0  0  0  0
    0.8069    2.9147   -1.3074 O   0  0  0  0  0  0  0  0  0  0  0  0
    1.4743    1.7594   -0.9798 C   0  0  0  0  0  0  0  0  0  0  0  0
    2.7636    1.5731   -1.4831 C   0  0  0  0  0  0  0  0  0  0  0  0
    3.5819    2.8517   -2.6195 Br  0  0  0  0  0  0  0  0  0  0  0  0
    3.4745    0.4273   -1.1547 C   0  0  0  0  0  0  0  0  0  0  0  0
    2.9261   -0.5134   -0.2751 C   0  0  0  0  0  0  0  0  0  0  0  0
    1.6114   -0.3305    0.2260 C   0  0  0  0  0  0  0  0  0  0  0  0
    1.1482   -1.2219    1.3732 C   0  0  0  0  0  0  0  0  0  0  0  0
    1.8230   -2.5902    1.3953 C   0  0  0  0  0  0  0  0  0  0  0  0
    3.3329   -2.4228    1.3557 C   0  0  0  0  0  0  0  0  0  0  0  0
    3.7545   -1.7319    0.0651 C   0  0  0  0  0  0  0  0  0  0  0  0
    0.8213    0.7936   -0.1809 C   0  0  0  0  0  0  0  0  0  0  0  0
   -0.5640    0.9691    0.1668 C   0  0  0  0  0  0  0  0  0  0  0  0
   -0.9952    2.1355    0.8416 C   0  0  0  0  0  0  0  0  0  0  0  0
   -0.0945    3.1375    1.1147 O   0  0  0  0  0  0  0  0  0  0  0  0
   -2.3077    2.2972    1.2932 C   0  0  0  0  0  0  0  0  0  0  0  0
   -2.8456    3.8413    2.2564 Br  0  0  0  0  0  0  0  0  0  0  0  0
   -3.2564    1.3178    1.0328 C   0  0  0  0  0  0  0  0  0  0  0  0
   -2.9133    0.1817    0.2900 C   0  0  0  0  0  0  0  0  0  0  0  0
   -1.5841    0.0192   -0.1742 C   0  0  0  0  0  0  0  0  0  0  0  0
   -1.2639   -1.1462   -1.1053 C   0  0  0  0  0  0  0  0  0  0  0  0
   -2.4933   -1.7841   -1.7497 C   0  0  0  0  0  0  0  0  0  0  0  0
   -3.5327   -2.0869   -0.6841 C   0  0  0  0  0  0  0  0  0  0  0  0
   -4.0209   -0.7883   -0.0549 C   0  0  0  0  0  0  0  0  0  0  0  0
   -0.6046    5.7606   -0.3260 H   0  0  0  0  0  0  0  0  0  0  0  0
    4.4748    0.2757   -1.5552 H   0  0  0  0  0  0  0  0  0  0  0  0
    0.0691   -1.3796    1.3776 H   0  0  0  0  0  0  0  0  0  0  0  0
    1.3842   -0.6925    2.3063 H   0  0  0  0  0  0  0  0  0  0  0  0
    1.4894   -3.1907    0.5398 H   0  0  0  0  0  0  0  0  0  0  0  0
    1.5313   -3.1289    2.3039 H   0  0  0  0  0  0  0  0  0  0  0  0
    3.8255   -3.3986    1.4309 H   0  0  0  0  0  0  0  0  0  0  0  0
    3.6604   -1.8306    2.2197 H   0  0  0  0  0  0  0  0  0  0  0  0
    3.6666   -2.4389   -0.7697 H   0  0  0  0  0  0  0  0  0  0  0  0
    4.8124   -1.4548    0.1491 H   0  0  0  0  0  0  0  0  0  0  0  0
   -4.2807    1.4487    1.3761 H   0  0  0  0  0  0  0  0  0  0  0  0
   -0.6052   -0.8067   -1.9132 H   0  0  0  0  0  0  0  0  0  0  0  0
   -0.7372   -1.9246   -0.5458 H   0  0  0  0  0  0  0  0  0  0  0  0
   -2.9166   -1.1109   -2.5058 H   0  0  0  0  0  0  0  0  0  0  0  0
   -2.2009   -2.7054   -2.2658 H   0  0  0  0  0  0  0  0  0  0  0  0
   -4.3800   -2.6282   -1.1195 H   0  0  0  0  0  0  0  0  0  0  0  0
   -3.0968   -2.7369    0.0851 H   0  0  0  0  0  0  0  0  0  0  0  0
   -4.5962   -1.0279    0.8476 H   0  0  0  0  0  0  0  0  0  0  0  0
   -4.7003   -0.2869   -0.7562 H   0  0  0  0  0  0  0  0  0  0  0  0
  2  1  2  0  0  0  0
  2 18  1  0  0  0  0
  3 28  1  0  0  0  0
  3  2  1  0  0  0  0
  4  5  1  0  0  0  0
  4  2  1  0  0  0  0
  5 15  2  0  0  0  0
  6  8  2  0  0  0  0
  6  5  1  0  0  0  0
  7  6  1  0  0  0  0
  8  9  1  0  0  0  0
  9 14  1  0  0  0  0
  9 10  2  0  0  0  0
 10 11  1  0  0  0  0
 11 30  1  0  0  0  0
 11 12  1  0  0  0  0
 11 31  1  0  0  0  0
 12 33  1  0  0  0  0
 13 12  1  0  0  0  0
 13 34  1  0  0  0  0
 13 35  1  0  0  0  0
 14 37  1  0  0  0  0
 14 13  1  0  0  0  0
 15 16  1  0  0  0  0
 15 10  1  0  0  0  0
 16 17  1  0  0  0  0
 17 18  1  0  0  0  0
 17 19  2  0  0  0  0
 19 20  1  0  0  0  0
 21 19  1  0  0  0  0
 21 38  1  0  0  0  0
 22 21  2  0  0  0  0
 23 16  2  0  0  0  0
 23 22  1  0  0  0  0
 24 40  1  0  0  0  0
 24 23  1  0  0  0  0
 25 24  1  0  0  0  0
 25 26  1  0  0  0  0
 26 27  1  0  0  0  0
 26 44  1  0  0  0  0
 27 22  1  0  0  0  0
 27 45  1  0  0  0  0
 29  8  1  0  0  0  0
 32 12  1  0  0  0  0
 36 14  1  0  0  0  0
 39 24  1  0  0  0  0
 41 25  1  0  0  0  0
 42 25  1  0  0  0  0
 43 26  1  0  0  0  0
 46 27  1  0  0  0  0
M  END
$$$$
