O=P1(O)OC2=C(C3=C(OC(F)(F)F)C=CC=C3)C=C4C(C=CC=C4)=C2C5=C(O1)C(C6=CC=CC=C6OC(F)(F)F)=CC7=C5C=CC=C7
 OpenBabel09032010383D

 66 72  0  0  0  0  0  0  0  0999 V2000
   -0.6865    1.0480    3.1599 O   0  0  0  0  0  0  0  0  0  0  0  0
   -0.0811    0.1529    2.1241 P   0  0  0  0  0  0  0  0  0  0  0  0
    0.7418   -1.0455    2.8130 O   0  0  0  0  0  0  0  0  0  0  0  0
    1.0011    0.8575    1.1639 O   0  0  0  0  0  0  0  0  0  0  0  0
    1.4023    0.2139    0.0127 C   0  0  0  0  0  0  0  0  0  0  0  0
    2.7551   -0.1650   -0.0491 C   0  0  0  0  0  0  0  0  0  0  0  0
    3.6850    0.0415    1.0760 C   0  0  0  0  0  0  0  0  0  0  0  0
    4.3717    1.2609    1.2692 C   0  0  0  0  0  0  0  0  0  0  0  0
    4.1279    2.2333    0.3360 O   0  0  0  0  0  0  0  0  0  0  0  0
    4.7962    3.4737    0.4607 C   0  0  0  0  0  0  0  0  0  0  0  0
    4.4127    4.2778   -0.5557 F   0  0  0  0  0  0  0  0  0  0  0  0
    6.1351    3.3145    0.3857 F   0  0  0  0  0  0  0  0  0  0  0  0
    4.4795    4.0857    1.6218 F   0  0  0  0  0  0  0  0  0  0  0  0
    5.2385    1.3964    2.3609 C   0  0  0  0  0  0  0  0  0  0  0  0
    5.4331    0.3365    3.2509 C   0  0  0  0  0  0  0  0  0  0  0  0
    4.7686   -0.8693    3.0601 C   0  0  0  0  0  0  0  0  0  0  0  0
    3.9022   -1.0154    1.9794 C   0  0  0  0  0  0  0  0  0  0  0  0
    3.2141   -0.7737   -1.2168 C   0  0  0  0  0  0  0  0  0  0  0  0
    2.3589   -1.0301   -2.2902 C   0  0  0  0  0  0  0  0  0  0  0  0
    0.9898   -0.6562   -2.2183 C   0  0  0  0  0  0  0  0  0  0  0  0
    0.1796   -1.0591   -3.3117 C   0  0  0  0  0  0  0  0  0  0  0  0
    0.6957   -1.7149   -4.4334 C   0  0  0  0  0  0  0  0  0  0  0  0
    2.0463   -2.0154   -4.4957 C   0  0  0  0  0  0  0  0  0  0  0  0
    2.8701   -1.6825   -3.4253 C   0  0  0  0  0  0  0  0  0  0  0  0
    0.4843    0.0391   -1.0573 C   0  0  0  0  0  0  0  0  0  0  0  0
   -0.8780    0.5283   -0.9519 C   0  0  0  0  0  0  0  0  0  0  0  0
   -1.6809    0.1366    0.1462 C   0  0  0  0  0  0  0  0  0  0  0  0
   -1.1130   -0.6099    1.1534 O   0  0  0  0  0  0  0  0  0  0  0  0
   -3.0539    0.4164    0.2593 C   0  0  0  0  0  0  0  0  0  0  0  0
   -3.8698   -0.0775    1.3843 C   0  0  0  0  0  0  0  0  0  0  0  0
   -4.3775    0.8304    2.3295 C   0  0  0  0  0  0  0  0  0  0  0  0
   -5.1636    0.3930    3.3971 C   0  0  0  0  0  0  0  0  0  0  0  0
   -5.4646   -0.9594    3.5323 C   0  0  0  0  0  0  0  0  0  0  0  0
   -4.9713   -1.8798    2.6085 C   0  0  0  0  0  0  0  0  0  0  0  0
   -4.1598   -1.4466    1.5537 C   0  0  0  0  0  0  0  0  0  0  0  0
   -3.6891   -2.3219    0.6094 O   0  0  0  0  0  0  0  0  0  0  0  0
   -2.9398   -3.3989    1.1568 C   0  0  0  0  0  0  0  0  0  0  0  0
   -2.1661   -3.0181    2.1957 F   0  0  0  0  0  0  0  0  0  0  0  0
   -2.1375   -3.9035    0.1927 F   0  0  0  0  0  0  0  0  0  0  0  0
   -3.7703   -4.3856    1.5633 F   0  0  0  0  0  0  0  0  0  0  0  0
   -3.6462    1.1826   -0.7458 C   0  0  0  0  0  0  0  0  0  0  0  0
   -2.8997    1.6816   -1.8174 C   0  0  0  0  0  0  0  0  0  0  0  0
   -1.5144    1.3815   -1.9252 C   0  0  0  0  0  0  0  0  0  0  0  0
   -0.8195    2.0016   -2.9943 C   0  0  0  0  0  0  0  0  0  0  0  0
   -1.4596    2.8112   -3.9368 C   0  0  0  0  0  0  0  0  0  0  0  0
   -2.8214    3.0468   -3.8329 C   0  0  0  0  0  0  0  0  0  0  0  0
   -3.5345    2.4904   -2.7752 C   0  0  0  0  0  0  0  0  0  0  0  0
    1.1081   -0.7413    3.6630 H   0  0  0  0  0  0  0  0  0  0  0  0
    5.7879    2.3133    2.5549 H   0  0  0  0  0  0  0  0  0  0  0  0
    6.1117    0.4547    4.0926 H   0  0  0  0  0  0  0  0  0  0  0  0
    4.9235   -1.6965    3.7478 H   0  0  0  0  0  0  0  0  0  0  0  0
    3.3832   -1.9631    1.8405 H   0  0  0  0  0  0  0  0  0  0  0  0
    4.2610   -1.0694   -1.2760 H   0  0  0  0  0  0  0  0  0  0  0  0
   -0.8934   -0.8762   -3.3013 H   0  0  0  0  0  0  0  0  0  0  0  0
    0.0359   -1.9902   -5.2522 H   0  0  0  0  0  0  0  0  0  0  0  0
    2.4560   -2.5248   -5.3633 H   0  0  0  0  0  0  0  0  0  0  0  0
    3.9234   -1.9522   -3.4796 H   0  0  0  0  0  0  0  0  0  0  0  0
   -4.1486    1.8914    2.2443 H   0  0  0  0  0  0  0  0  0  0  0  0
   -5.5407    1.1116    4.1203 H   0  0  0  0  0  0  0  0  0  0  0  0
   -6.0879   -1.2969    4.3565 H   0  0  0  0  0  0  0  0  0  0  0  0
   -5.2424   -2.9263    2.7181 H   0  0  0  0  0  0  0  0  0  0  0  0
   -4.7109    1.4045   -0.6785 H   0  0  0  0  0  0  0  0  0  0  0  0
    0.2555    1.8680   -3.1041 H   0  0  0  0  0  0  0  0  0  0  0  0
   -0.8886    3.2563   -4.7473 H   0  0  0  0  0  0  0  0  0  0  0  0
   -3.3265    3.6746   -4.5616 H   0  0  0  0  0  0  0  0  0  0  0  0
   -4.5987    2.7059   -2.6975 H   0  0  0  0  0  0  0  0  0  0  0  0
  2  3  1  0  0  0  0
  2  1  2  0  0  0  0
  3 48  1  0  0  0  0
  4  2  1  0  0  0  0
  5  4  1  0  0  0  0
  6  5  1  0  0  0  0
  6  7  1  0  0  0  0
  7  8  2  0  0  0  0
  7 17  1  0  0  0  0
  8 14  1  0  0  0  0
  9 10  1  0  0  0  0
  9  8  1  0  0  0  0
 10 13  1  0  0  0  0
 11 10  1  0  0  0  0
 12 10  1  0  0  0  0
 14 49  1  0  0  0  0
 14 15  2  0  0  0  0
 15 50  1  0  0  0  0
 16 15  1  0  0  0  0
 16 51  1  0  0  0  0
 17 16  2  0  0  0  0
 18  6  2  0  0  0  0
 19 20  1  0  0  0  0
 19 18  1  0  0  0  0
 20 25  1  0  0  0  0
 21 54  1  0  0  0  0
 21 20  2  0  0  0  0
 22 21  1  0  0  0  0
 23 22  2  0  0  0  0
 23 24  1  0  0  0  0
 24 19  2  0  0  0  0
 25 26  1  0  0  0  0
 25  5  2  0  0  0  0
 26 27  2  0  0  0  0
 27 29  1  0  0  0  0
 27 28  1  0  0  0  0
 28  2  1  0  0  0  0
 29 30  1  0  0  0  0
 30 35  2  0  0  0  0
 30 31  1  0  0  0  0
 31 32  2  0  0  0  0
 32 33  1  0  0  0  0
 32 59  1  0  0  0  0
 33 60  1  0  0  0  0
 34 61  1  0  0  0  0
 34 33  2  0  0  0  0
 35 34  1  0  0  0  0
 36 37  1  0  0  0  0
 36 35  1  0  0  0  0
 37 40  1  0  0  0  0
 37 38  1  0  0  0  0
 39 37  1  0  0  0  0
 41 62  1  0  0  0  0
 41 29  2  0  0  0  0
 42 41  1  0  0  0  0
 43 42  1  0  0  0  0
 43 26  1  0  0  0  0
 44 43  2  0  0  0  0
 45 46  2  0  0  0  0
 45 44  1  0  0  0  0
 46 47  1  0  0  0  0
 47 66  1  0  0  0  0
 47 42  2  0  0  0  0
 52 17  1  0  0  0  0
 53 18  1  0  0  0  0
 55 22  1  0  0  0  0
 56 23  1  0  0  0  0
 57 24  1  0  0  0  0
 58 31  1  0  0  0  0
 63 44  1  0  0  0  0
 64 45  1  0  0  0  0
 65 46  1  0  0  0  0
M  END
$$$$
