O=P1(O)OC2=C([Si](C3=CC=CC=C3)(C)C4=CC=CC=C4)C=C5C(C=CC=C5)=C2C6=C(O1)C([Si](C7=CC=CC=C7)(C8=CC=CC=C8)C)=CC9=C6C=CC=C9
 OpenBabel09032010383D

 90 98  0  0  0  0  0  0  0  0999 V2000
    0.9756   -2.4969   -1.5470 O   0  0  0  0  0  0  0  0  0  0  0  0
    0.2769   -1.5653   -0.6036 P   0  0  0  0  0  0  0  0  0  0  0  0
   -0.5433   -2.3576    0.5242 O   0  0  0  0  0  0  0  0  0  0  0  0
    1.2203   -0.5972    0.2642 O   0  0  0  0  0  0  0  0  0  0  0  0
    1.6811    0.5599   -0.3037 C   0  0  0  0  0  0  0  0  0  0  0  0
    3.0597    0.6645   -0.5691 C   0  0  0  0  0  0  0  0  0  0  0  0
    4.3377   -0.7126   -0.2834 Si  0  0  0  0  0  0  0  0  0  0  0  0
    5.8422    0.1094    0.5454 C   0  0  0  0  0  0  0  0  0  0  0  0
    5.7011    1.2070    1.4169 C   0  0  0  0  0  0  0  0  0  0  0  0
    6.8172    1.8023    2.0096 C   0  0  0  0  0  0  0  0  0  0  0  0
    8.0927    1.3106    1.7485 C   0  0  0  0  0  0  0  0  0  0  0  0
    8.2549    0.2209    0.8975 C   0  0  0  0  0  0  0  0  0  0  0  0
    7.1409   -0.3770    0.3014 C   0  0  0  0  0  0  0  0  0  0  0  0
    4.7931   -1.4914   -1.9162 C   0  0  0  0  0  0  0  0  0  0  0  0
    3.7149   -1.9518    0.9863 C   0  0  0  0  0  0  0  0  0  0  0  0
    3.3992   -3.2705    0.6033 C   0  0  0  0  0  0  0  0  0  0  0  0
    2.9416   -4.2057    1.5362 C   0  0  0  0  0  0  0  0  0  0  0  0
    2.7861   -3.8429    2.8700 C   0  0  0  0  0  0  0  0  0  0  0  0
    3.0848   -2.5444    3.2709 C   0  0  0  0  0  0  0  0  0  0  0  0
    3.5444   -1.6078    2.3401 C   0  0  0  0  0  0  0  0  0  0  0  0
    3.5050    1.8683   -1.1390 C   0  0  0  0  0  0  0  0  0  0  0  0
    2.6323    2.9217   -1.4294 C   0  0  0  0  0  0  0  0  0  0  0  0
    1.2496    2.8024   -1.1390 C   0  0  0  0  0  0  0  0  0  0  0  0
    0.4306    3.8857   -1.5536 C   0  0  0  0  0  0  0  0  0  0  0  0
    0.9476    5.0377   -2.1530 C   0  0  0  0  0  0  0  0  0  0  0  0
    2.3092    5.1425   -2.3809 C   0  0  0  0  0  0  0  0  0  0  0  0
    3.1438    4.0867   -2.0276 C   0  0  0  0  0  0  0  0  0  0  0  0
    0.7430    1.6088   -0.5086 C   0  0  0  0  0  0  0  0  0  0  0  0
   -0.6433    1.4588   -0.0987 C   0  0  0  0  0  0  0  0  0  0  0  0
   -1.4345    0.3850   -0.5915 C   0  0  0  0  0  0  0  0  0  0  0  0
   -0.8304   -0.6230   -1.3066 O   0  0  0  0  0  0  0  0  0  0  0  0
   -2.8404    0.3244   -0.4639 C   0  0  0  0  0  0  0  0  0  0  0  0
   -3.8867   -0.9854   -1.3651 Si  0  0  0  0  0  0  0  0  0  0  0  0
   -3.6702   -2.5724   -0.3735 C   0  0  0  0  0  0  0  0  0  0  0  0
   -3.4961   -3.8080   -1.0264 C   0  0  0  0  0  0  0  0  0  0  0  0
   -3.3224   -4.9874   -0.2972 C   0  0  0  0  0  0  0  0  0  0  0  0
   -3.3225   -4.9560    1.0943 C   0  0  0  0  0  0  0  0  0  0  0  0
   -3.4987   -3.7464    1.7597 C   0  0  0  0  0  0  0  0  0  0  0  0
   -3.6710   -2.5645    1.0347 C   0  0  0  0  0  0  0  0  0  0  0  0
   -5.6977   -0.4593   -1.2425 C   0  0  0  0  0  0  0  0  0  0  0  0
   -6.6507   -1.1841   -0.5043 C   0  0  0  0  0  0  0  0  0  0  0  0
   -7.9844   -0.7672   -0.4456 C   0  0  0  0  0  0  0  0  0  0  0  0
   -8.3931    0.3765   -1.1254 C   0  0  0  0  0  0  0  0  0  0  0  0
   -7.4697    1.1055   -1.8679 C   0  0  0  0  0  0  0  0  0  0  0  0
   -6.1363    0.6918   -1.9298 C   0  0  0  0  0  0  0  0  0  0  0  0
   -3.3933   -1.1660   -3.1541 C   0  0  0  0  0  0  0  0  0  0  0  0
   -3.4544    1.3009    0.3319 C   0  0  0  0  0  0  0  0  0  0  0  0
   -2.7169    2.3093    0.9607 C   0  0  0  0  0  0  0  0  0  0  0  0
   -1.3149    2.3968    0.7627 C   0  0  0  0  0  0  0  0  0  0  0  0
   -0.6409    3.4140    1.4865 C   0  0  0  0  0  0  0  0  0  0  0  0
   -1.3119    4.3223    2.3100 C   0  0  0  0  0  0  0  0  0  0  0  0
   -2.6874    4.2374    2.4515 C   0  0  0  0  0  0  0  0  0  0  0  0
   -3.3834    3.2334    1.7845 C   0  0  0  0  0  0  0  0  0  0  0  0
   -0.9717   -3.1617    0.1789 H   0  0  0  0  0  0  0  0  0  0  0  0
    4.7181    1.6152    1.6494 H   0  0  0  0  0  0  0  0  0  0  0  0
    6.6883    2.6498    2.6782 H   0  0  0  0  0  0  0  0  0  0  0  0
    8.9591    1.7733    2.2123 H   0  0  0  0  0  0  0  0  0  0  0  0
    9.2507   -0.1682    0.6992 H   0  0  0  0  0  0  0  0  0  0  0  0
    7.3072   -1.2323   -0.3514 H   0  0  0  0  0  0  0  0  0  0  0  0
    5.2538   -0.7570   -2.5842 H   0  0  0  0  0  0  0  0  0  0  0  0
    5.5012   -2.3146   -1.7813 H   0  0  0  0  0  0  0  0  0  0  0  0
    3.9068   -1.8902   -2.4193 H   0  0  0  0  0  0  0  0  0  0  0  0
    3.4908   -3.5912   -0.4339 H   0  0  0  0  0  0  0  0  0  0  0  0
    2.7033   -5.2165    1.2159 H   0  0  0  0  0  0  0  0  0  0  0  0
    2.4289   -4.5685    3.5950 H   0  0  0  0  0  0  0  0  0  0  0  0
    2.9618   -2.2551    4.3114 H   0  0  0  0  0  0  0  0  0  0  0  0
    3.7616   -0.6022    2.6944 H   0  0  0  0  0  0  0  0  0  0  0  0
    4.5626    1.9915   -1.3818 H   0  0  0  0  0  0  0  0  0  0  0  0
   -0.6490    3.8421   -1.4230 H   0  0  0  0  0  0  0  0  0  0  0  0
    0.2794    5.8442   -2.4421 H   0  0  0  0  0  0  0  0  0  0  0  0
    2.7215    6.0335   -2.8460 H   0  0  0  0  0  0  0  0  0  0  0  0
    4.2088    4.1779   -2.2349 H   0  0  0  0  0  0  0  0  0  0  0  0
   -3.4939   -3.8749   -2.1139 H   0  0  0  0  0  0  0  0  0  0  0  0
   -3.1929   -5.9333   -0.8182 H   0  0  0  0  0  0  0  0  0  0  0  0
   -3.1894   -5.8737    1.6613 H   0  0  0  0  0  0  0  0  0  0  0  0
   -3.4964   -3.7173    2.8468 H   0  0  0  0  0  0  0  0  0  0  0  0
   -3.7961   -1.6356    1.5911 H   0  0  0  0  0  0  0  0  0  0  0  0
   -6.3800   -2.0897    0.0359 H   0  0  0  0  0  0  0  0  0  0  0  0
   -8.7052   -1.3418    0.1309 H   0  0  0  0  0  0  0  0  0  0  0  0
   -9.4307    0.6965   -1.0794 H   0  0  0  0  0  0  0  0  0  0  0  0
   -7.7855    1.9975   -2.4029 H   0  0  0  0  0  0  0  0  0  0  0  0
   -5.4430    1.2887   -2.5221 H   0  0  0  0  0  0  0  0  0  0  0  0
   -3.3898   -0.1949   -3.6587 H   0  0  0  0  0  0  0  0  0  0  0  0
   -2.3942   -1.5999   -3.2554 H   0  0  0  0  0  0  0  0  0  0  0  0
   -4.0933   -1.8167   -3.6875 H   0  0  0  0  0  0  0  0  0  0  0  0
   -4.5331    1.2782    0.4897 H   0  0  0  0  0  0  0  0  0  0  0  0
    0.4425    3.5039    1.4275 H   0  0  0  0  0  0  0  0  0  0  0  0
   -0.7520    5.0871    2.8411 H   0  0  0  0  0  0  0  0  0  0  0  0
   -3.2186    4.9395    3.0884 H   0  0  0  0  0  0  0  0  0  0  0  0
   -4.4622    3.1726    1.9214 H   0  0  0  0  0  0  0  0  0  0  0  0
  1  2  2  0  0  0  0
  2  4  1  0  0  0  0
  2  3  1  0  0  0  0
  5  4  1  0  0  0  0
  6  5  1  0  0  0  0
  6  7  1  0  0  0  0
  7  8  1  0  0  0  0
  7 15  1  0  0  0  0
  8  9  1  0  0  0  0
  9 55  1  0  0  0  0
  9 10  2  0  0  0  0
 10 56  1  0  0  0  0
 11 10  1  0  0  0  0
 11 57  1  0  0  0  0
 12 11  2  0  0  0  0
 13  8  2  0  0  0  0
 13 12  1  0  0  0  0
 14 61  1  0  0  0  0
 14  7  1  0  0  0  0
 15 20  1  0  0  0  0
 16 15  2  0  0  0  0
 16 17  1  0  0  0  0
 17 18  2  0  0  0  0
 18 19  1  0  0  0  0
 18 65  1  0  0  0  0
 19 66  1  0  0  0  0
 20 67  1  0  0  0  0
 20 19  2  0  0  0  0
 21  6  2  0  0  0  0
 22 21  1  0  0  0  0
 22 23  1  0  0  0  0
 23 28  1  0  0  0  0
 24 69  1  0  0  0  0
 24 23  2  0  0  0  0
 25 24  1  0  0  0  0
 26 25  2  0  0  0  0
 26 27  1  0  0  0  0
 27 22  2  0  0  0  0
 28  5  2  0  0  0  0
 28 29  1  0  0  0  0
 29 49  2  0  0  0  0
 30 32  2  0  0  0  0
 30 29  1  0  0  0  0
 31  2  1  0  0  0  0
 31 30  1  0  0  0  0
 32 47  1  0  0  0  0
 33 40  1  0  0  0  0
 33 32  1  0  0  0  0
 33 34  1  0  0  0  0
 34 39  1  0  0  0  0
 35 34  2  0  0  0  0
 35 36  1  0  0  0  0
 36 37  2  0  0  0  0
 37 75  1  0  0  0  0
 37 38  1  0  0  0  0
 38 76  1  0  0  0  0
 39 77  1  0  0  0  0
 39 38  2  0  0  0  0
 40 41  2  0  0  0  0
 41 42  1  0  0  0  0
 41 78  1  0  0  0  0
 42 79  1  0  0  0  0
 43 80  1  0  0  0  0
 43 42  2  0  0  0  0
 44 43  1  0  0  0  0
 45 44  2  0  0  0  0
 45 40  1  0  0  0  0
 46 33  1  0  0  0  0
 47 86  1  0  0  0  0
 47 48  2  0  0  0  0
 48 53  1  0  0  0  0
 49 48  1  0  0  0  0
 49 50  1  0  0  0  0
 50 51  2  0  0  0  0
 51 52  1  0  0  0  0
 51 88  1  0  0  0  0
 52 89  1  0  0  0  0
 53 90  1  0  0  0  0
 53 52  2  0  0  0  0
 54  3  1  0  0  0  0
 58 12  1  0  0  0  0
 59 13  1  0  0  0  0
 60 14  1  0  0  0  0
 62 14  1  0  0  0  0
 63 16  1  0  0  0  0
 64 17  1  0  0  0  0
 68 21  1  0  0  0  0
 70 25  1  0  0  0  0
 71 26  1  0  0  0  0
 72 27  1  0  0  0  0
 73 35  1  0  0  0  0
 74 36  1  0  0  0  0
 81 44  1  0  0  0  0
 82 45  1  0  0  0  0
 83 46  1  0  0  0  0
 84 46  1  0  0  0  0
 85 46  1  0  0  0  0
 87 50  1  0  0  0  0
M  END
$$$$
