O=P1(O)OC2=C(C3=C(C(C)C)C=C(C(C)C)C=C3C(C)C)C=C4C(C=CC=C4)=C2C5=C(O1)[C@@]([C@@]6=C(C(C)C)C=C(C(C)C)C=C6C(C)C)=CC7=C5C=CC=C7
 OpenBabel09032010383D

112118  0  0  0  0  0  0  0  0999 V2000
    0.5923   -2.2635    0.2869 O   0  0  0  0  0  0  0  0  0  0  0  0
   -0.0062   -0.9132    0.5210 P   0  0  0  0  0  0  0  0  0  0  0  0
   -0.8693   -0.8965    1.8765 O   0  0  0  0  0  0  0  0  0  0  0  0
    1.0173    0.3117    0.7174 O   0  0  0  0  0  0  0  0  0  0  0  0
    1.5839    0.8537   -0.4124 C   0  0  0  0  0  0  0  0  0  0  0  0
    2.9757    0.7085   -0.5625 C   0  0  0  0  0  0  0  0  0  0  0  0
    3.8254    0.0306    0.4430 C   0  0  0  0  0  0  0  0  0  0  0  0
    4.2705   -1.3085    0.2402 C   0  0  0  0  0  0  0  0  0  0  0  0
    3.8680   -2.1253   -0.9918 C   0  0  0  0  0  0  0  0  0  0  0  0
    3.5002   -3.5820   -0.6697 C   0  0  0  0  0  0  0  0  0  0  0  0
    4.9837   -2.1015   -2.0421 C   0  0  0  0  0  0  0  0  0  0  0  0
    5.1334   -1.8965    1.1881 C   0  0  0  0  0  0  0  0  0  0  0  0
    5.5425   -1.2205    2.3410 C   0  0  0  0  0  0  0  0  0  0  0  0
    6.4589   -1.8672    3.3643 C   0  0  0  0  0  0  0  0  0  0  0  0
    7.8272   -2.1989    2.7635 C   0  0  0  0  0  0  0  0  0  0  0  0
    5.8197   -3.1112    3.9869 C   0  0  0  0  0  0  0  0  0  0  0  0
    5.0882    0.0851    2.5385 C   0  0  0  0  0  0  0  0  0  0  0  0
    4.2461    0.7317    1.6101 C   0  0  0  0  0  0  0  0  0  0  0  0
    3.8258    2.1760    1.8957 C   0  0  0  0  0  0  0  0  0  0  0  0
    5.0366    3.1130    1.9733 C   0  0  0  0  0  0  0  0  0  0  0  0
    2.9769    2.2728    3.1675 C   0  0  0  0  0  0  0  0  0  0  0  0
    3.5747    1.2786   -1.6882 C   0  0  0  0  0  0  0  0  0  0  0  0
    2.8185    1.9208   -2.6701 C   0  0  0  0  0  0  0  0  0  0  0  0
    1.4169    2.0711   -2.5033 C   0  0  0  0  0  0  0  0  0  0  0  0
    0.7173    2.6552   -3.5904 C   0  0  0  0  0  0  0  0  0  0  0  0
    1.3633    3.1207   -4.7387 C   0  0  0  0  0  0  0  0  0  0  0  0
    2.7390    3.0038   -4.8499 C   0  0  0  0  0  0  0  0  0  0  0  0
    3.4608    2.4024   -3.8233 C   0  0  0  0  0  0  0  0  0  0  0  0
    0.7719    1.6020   -1.3017 C   0  0  0  0  0  0  0  0  0  0  0  0
   -0.6118    1.8918   -0.9706 C   0  0  0  0  0  0  0  0  0  0  0  0
   -1.5106    0.8497   -0.6304 C   0  0  0  0  0  0  0  0  0  0  0  0
   -1.0632   -0.4502   -0.5965 O   0  0  0  0  0  0  0  0  0  0  0  0
   -2.8962    1.0376   -0.4539 C   0  0  0  0  0  0  0  0  0  0  0  0
   -3.8223   -0.0822   -0.1612 C   0  0  0  0  0  0  0  0  0  0  0  0
   -4.3275   -0.2843    1.1591 C   0  0  0  0  0  0  0  0  0  0  0  0
   -3.9567    0.6353    2.3286 C   0  0  0  0  0  0  0  0  0  0  0  0
   -5.0707    1.6564    2.5850 C   0  0  0  0  0  0  0  0  0  0  0  0
   -3.6482   -0.1175    3.6323 C   0  0  0  0  0  0  0  0  0  0  0  0
   -5.2322   -1.3404    1.3948 C   0  0  0  0  0  0  0  0  0  0  0  0
   -5.6318   -2.2155    0.3813 C   0  0  0  0  0  0  0  0  0  0  0  0
   -6.6015   -3.3425    0.6910 C   0  0  0  0  0  0  0  0  0  0  0  0
   -7.9164   -3.1787   -0.0754 C   0  0  0  0  0  0  0  0  0  0  0  0
   -5.9776   -4.7137    0.4185 C   0  0  0  0  0  0  0  0  0  0  0  0
   -5.1286   -2.0119   -0.9057 C   0  0  0  0  0  0  0  0  0  0  0  0
   -4.2407   -0.9578   -1.2040 C   0  0  0  0  0  0  0  0  0  0  0  0
   -3.7811   -0.7873   -2.6551 C   0  0  0  0  0  0  0  0  0  0  0  0
   -4.9614   -0.4714   -3.5809 C   0  0  0  0  0  0  0  0  0  0  0  0
   -3.0090   -2.0130   -3.1552 C   0  0  0  0  0  0  0  0  0  0  0  0
   -3.4044    2.3299   -0.5985 C   0  0  0  0  0  0  0  0  0  0  0  0
   -2.5653    3.4208   -0.8297 C   0  0  0  0  0  0  0  0  0  0  0  0
   -1.1679    3.2238   -0.9877 C   0  0  0  0  0  0  0  0  0  0  0  0
   -0.3846    4.4001   -1.1148 C   0  0  0  0  0  0  0  0  0  0  0  0
   -0.9456    5.6797   -1.1566 C   0  0  0  0  0  0  0  0  0  0  0  0
   -2.3181    5.8337   -1.0543 C   0  0  0  0  0  0  0  0  0  0  0  0
   -3.1216    4.7103   -0.8849 C   0  0  0  0  0  0  0  0  0  0  0  0
   -1.3425   -1.7434    1.9666 H   0  0  0  0  0  0  0  0  0  0  0  0
    2.9691   -1.6878   -1.4393 H   0  0  0  0  0  0  0  0  0  0  0  0
    4.3796   -4.1863   -0.4223 H   0  0  0  0  0  0  0  0  0  0  0  0
    3.0224   -4.0518   -1.5368 H   0  0  0  0  0  0  0  0  0  0  0  0
    2.8059   -3.6448    0.1734 H   0  0  0  0  0  0  0  0  0  0  0  0
    5.8975   -2.5783   -1.6694 H   0  0  0  0  0  0  0  0  0  0  0  0
    5.2437   -1.0794   -2.3323 H   0  0  0  0  0  0  0  0  0  0  0  0
    4.6729   -2.6352   -2.9468 H   0  0  0  0  0  0  0  0  0  0  0  0
    5.4974   -2.9080    1.0235 H   0  0  0  0  0  0  0  0  0  0  0  0
    6.6311   -1.1531    4.1806 H   0  0  0  0  0  0  0  0  0  0  0  0
    7.7564   -2.9554    1.9744 H   0  0  0  0  0  0  0  0  0  0  0  0
    8.2907   -1.3061    2.3291 H   0  0  0  0  0  0  0  0  0  0  0  0
    8.5024   -2.5855    3.5345 H   0  0  0  0  0  0  0  0  0  0  0  0
    5.6669   -3.9069    3.2497 H   0  0  0  0  0  0  0  0  0  0  0  0
    4.8450   -2.8719    4.4265 H   0  0  0  0  0  0  0  0  0  0  0  0
    6.4564   -3.5136    4.7822 H   0  0  0  0  0  0  0  0  0  0  0  0
    5.4024    0.6185    3.4339 H   0  0  0  0  0  0  0  0  0  0  0  0
    3.2049    2.5615    1.0823 H   0  0  0  0  0  0  0  0  0  0  0  0
    5.6410    3.0456    1.0619 H   0  0  0  0  0  0  0  0  0  0  0  0
    5.6859    2.8822    2.8243 H   0  0  0  0  0  0  0  0  0  0  0  0
    4.7093    4.1528    2.0819 H   0  0  0  0  0  0  0  0  0  0  0  0
    2.6108    3.2959    3.3069 H   0  0  0  0  0  0  0  0  0  0  0  0
    2.1059    1.6110    3.1091 H   0  0  0  0  0  0  0  0  0  0  0  0
    3.5440    2.0003    4.0639 H   0  0  0  0  0  0  0  0  0  0  0  0
    4.6546    1.1932   -1.8042 H   0  0  0  0  0  0  0  0  0  0  0  0
   -0.3674    2.7456   -3.5633 H   0  0  0  0  0  0  0  0  0  0  0  0
    0.7838    3.5673   -5.5422 H   0  0  0  0  0  0  0  0  0  0  0  0
    3.2494    3.3620   -5.7392 H   0  0  0  0  0  0  0  0  0  0  0  0
    4.5381    2.2967   -3.9392 H   0  0  0  0  0  0  0  0  0  0  0  0
   -3.0404    1.1832    2.0843 H   0  0  0  0  0  0  0  0  0  0  0  0
   -5.2980    2.2417    1.6895 H   0  0  0  0  0  0  0  0  0  0  0  0
   -4.7772    2.3567    3.3746 H   0  0  0  0  0  0  0  0  0  0  0  0
   -5.9998    1.1678    2.9001 H   0  0  0  0  0  0  0  0  0  0  0  0
   -3.2047    0.5647    4.3664 H   0  0  0  0  0  0  0  0  0  0  0  0
   -4.5489   -0.5395    4.0907 H   0  0  0  0  0  0  0  0  0  0  0  0
   -2.9438   -0.9375    3.4682 H   0  0  0  0  0  0  0  0  0  0  0  0
   -5.6468   -1.4796    2.3912 H   0  0  0  0  0  0  0  0  0  0  0  0
   -6.8464   -3.3096    1.7610 H   0  0  0  0  0  0  0  0  0  0  0  0
   -8.3701   -2.2027    0.1301 H   0  0  0  0  0  0  0  0  0  0  0  0
   -8.6339   -3.9512    0.2221 H   0  0  0  0  0  0  0  0  0  0  0  0
   -7.7727   -3.2583   -1.1584 H   0  0  0  0  0  0  0  0  0  0  0  0
   -5.0413   -4.8350    0.9746 H   0  0  0  0  0  0  0  0  0  0  0  0
   -5.7559   -4.8602   -0.6442 H   0  0  0  0  0  0  0  0  0  0  0  0
   -6.6579   -5.5142    0.7288 H   0  0  0  0  0  0  0  0  0  0  0  0
   -5.4449   -2.6814   -1.7035 H   0  0  0  0  0  0  0  0  0  0  0  0
   -3.0981    0.0620   -2.7429 H   0  0  0  0  0  0  0  0  0  0  0  0
   -4.6071   -0.2644   -4.5967 H   0  0  0  0  0  0  0  0  0  0  0  0
   -5.5069    0.4117   -3.2301 H   0  0  0  0  0  0  0  0  0  0  0  0
   -5.6728   -1.3018   -3.6428 H   0  0  0  0  0  0  0  0  0  0  0  0
   -3.6421   -2.9046   -3.2145 H   0  0  0  0  0  0  0  0  0  0  0  0
   -2.1673   -2.2448   -2.4938 H   0  0  0  0  0  0  0  0  0  0  0  0
   -2.6063   -1.8286   -4.1572 H   0  0  0  0  0  0  0  0  0  0  0  0
   -4.4782    2.4834   -0.5010 H   0  0  0  0  0  0  0  0  0  0  0  0
    0.7008    4.3363   -1.1720 H   0  0  0  0  0  0  0  0  0  0  0  0
   -0.3023    6.5489   -1.2645 H   0  0  0  0  0  0  0  0  0  0  0  0
   -2.7631    6.8244   -1.0867 H   0  0  0  0  0  0  0  0  0  0  0  0
   -4.1957    4.8526   -0.7786 H   0  0  0  0  0  0  0  0  0  0  0  0
  1  2  2  0  0  0  0
  2  4  1  0  0  0  0
  2  3  1  0  0  0  0
  3 56  1  0  0  0  0
  5  4  1  0  0  0  0
  6  5  1  0  0  0  0
  6  7  1  0  0  0  0
  7 18  1  0  0  0  0
  8  7  2  0  0  0  0
  8 12  1  0  0  0  0
  9 10  1  0  0  0  0
  9  8  1  0  0  0  0
 10 58  1  0  0  0  0
 10 60  1  0  0  0  0
 11 61  1  0  0  0  0
 11  9  1  0  0  0  0
 12 13  2  0  0  0  0
 13 17  1  0  0  0  0
 13 14  1  0  0  0  0
 14 16  1  0  0  0  0
 14 65  1  0  0  0  0
 15 14  1  0  0  0  0
 15 68  1  0  0  0  0
 16 70  1  0  0  0  0
 16 71  1  0  0  0  0
 17 72  1  0  0  0  0
 18 19  1  0  0  0  0
 18 17  2  0  0  0  0
 19 20  1  0  0  0  0
 19 21  1  0  0  0  0
 20 76  1  0  0  0  0
 20 75  1  0  0  0  0
 21 77  1  0  0  0  0
 21 79  1  0  0  0  0
 22  6  2  0  0  0  0
 23 24  1  0  0  0  0
 23 22  1  0  0  0  0
 24 29  1  0  0  0  0
 25 81  1  0  0  0  0
 25 24  2  0  0  0  0
 26 25  1  0  0  0  0
 27 26  2  0  0  0  0
 27 28  1  0  0  0  0
 28 23  2  0  0  0  0
 29 30  1  0  0  0  0
 29  5  2  0  0  0  0
 30 31  1  0  0  0  0
 31 32  1  0  0  0  0
 31 33  2  0  0  0  0
 32  2  1  0  0  0  0
 33 34  1  0  0  0  0
 34 35  2  0  0  0  0
 35 39  1  0  0  0  0
 35 36  1  0  0  0  0
 36 37  1  0  0  0  0
 36 38  1  0  0  0  0
 37 88  1  0  0  0  0
 37 87  1  0  0  0  0
 38 90  1  0  0  0  0
 38 89  1  0  0  0  0
 39 92  1  0  0  0  0
 40 41  1  0  0  0  0
 40 39  2  0  0  0  0
 41 93  1  0  0  0  0
 42 94  1  0  0  0  0
 42 95  1  0  0  0  0
 42 41  1  0  0  0  0
 43 41  1  0  0  0  0
 43 99  1  0  0  0  0
 43 97  1  0  0  0  0
 44 40  1  0  0  0  0
 45 44  2  0  0  0  0
 45 34  1  0  0  0  0
 46 45  1  0  0  0  0
 47103  1  0  0  0  0
 47 46  1  0  0  0  0
 48 46  1  0  0  0  0
 48106  1  0  0  0  0
 49108  1  0  0  0  0
 49 33  1  0  0  0  0
 50 49  2  0  0  0  0
 51 30  2  0  0  0  0
 51 50  1  0  0  0  0
 52 51  1  0  0  0  0
 53 52  2  0  0  0  0
 53 54  1  0  0  0  0
 54 55  2  0  0  0  0
 55 50  1  0  0  0  0
 55112  1  0  0  0  0
 57  9  1  0  0  0  0
 59 10  1  0  0  0  0
 62 11  1  0  0  0  0
 63 11  1  0  0  0  0
 64 12  1  0  0  0  0
 66 15  1  0  0  0  0
 67 15  1  0  0  0  0
 69 16  1  0  0  0  0
 73 19  1  0  0  0  0
 74 20  1  0  0  0  0
 78 21  1  0  0  0  0
 80 22  1  0  0  0  0
 82 26  1  0  0  0  0
 83 27  1  0  0  0  0
 84 28  1  0  0  0  0
 85 36  1  0  0  0  0
 86 37  1  0  0  0  0
 91 38  1  0  0  0  0
 96 42  1  0  0  0  0
 98 43  1  0  0  0  0
100 44  1  0  0  0  0
101 46  1  0  0  0  0
102 47  1  0  0  0  0
104 47  1  0  0  0  0
105 48  1  0  0  0  0
107 48  1  0  0  0  0
109 52  1  0  0  0  0
110 53  1  0  0  0  0
111 54  1  0  0  0  0
M  END
$$$$
