O=P1(O)OC2=C(C3=CC(C4=C(C)C=C(C)C=C4C)=CC(C5=C(C)C=C(C)C=C5C)=C3)C=C6C(CCCC6)=C2C7=C(O1)C(C8=CC(C9=C(C)C=C(C)C=C9C)=CC(C%10=C(C)C=C(C)C=C%10C)=C8)=CC%11=C7CCCC%11
 OpenBabel09032010383D

142152  0  0  0  0  0  0  0  0999 V2000
   -0.4977    1.1741    1.0775 O   0  0  0  0  0  0  0  0  0  0  0  0
    0.1467    0.0944    0.2638 P   0  0  0  0  0  0  0  0  0  0  0  0
    0.8816   -0.9590    1.2318 O   0  0  0  0  0  0  0  0  0  0  0  0
   -0.8445   -0.8383   -0.5945 O   0  0  0  0  0  0  0  0  0  0  0  0
   -1.3508   -0.3101   -1.7581 C   0  0  0  0  0  0  0  0  0  0  0  0
   -2.7331   -0.0561   -1.8004 C   0  0  0  0  0  0  0  0  0  0  0  0
   -3.6288   -0.3708   -0.6797 C   0  0  0  0  0  0  0  0  0  0  0  0
   -4.4281   -1.5239   -0.7155 C   0  0  0  0  0  0  0  0  0  0  0  0
   -5.3069   -1.8383    0.3319 C   0  0  0  0  0  0  0  0  0  0  0  0
   -6.1477   -3.0460    0.2698 C   0  0  0  0  0  0  0  0  0  0  0  0
   -5.7073   -4.2631    0.8455 C   0  0  0  0  0  0  0  0  0  0  0  0
   -4.3758   -4.3650    1.5452 C   0  0  0  0  0  0  0  0  0  0  0  0
   -6.5242   -5.4050    0.7788 C   0  0  0  0  0  0  0  0  0  0  0  0
   -7.7632   -5.3696    0.1351 C   0  0  0  0  0  0  0  0  0  0  0  0
   -8.6361   -6.5890    0.0979 C   0  0  0  0  0  0  0  0  0  0  0  0
   -8.2032   -4.1662   -0.4212 C   0  0  0  0  0  0  0  0  0  0  0  0
   -7.4136   -3.0060   -0.3639 C   0  0  0  0  0  0  0  0  0  0  0  0
   -7.9441   -1.7386   -0.9846 C   0  0  0  0  0  0  0  0  0  0  0  0
   -5.3750   -0.9754    1.4344 C   0  0  0  0  0  0  0  0  0  0  0  0
   -4.5867    0.1827    1.5022 C   0  0  0  0  0  0  0  0  0  0  0  0
   -4.6680    1.0728    2.6737 C   0  0  0  0  0  0  0  0  0  0  0  0
   -5.5703    2.1646    2.6882 C   0  0  0  0  0  0  0  0  0  0  0  0
   -6.4579    2.4656    1.5078 C   0  0  0  0  0  0  0  0  0  0  0  0
   -5.6443    2.9965    3.8185 C   0  0  0  0  0  0  0  0  0  0  0  0
   -4.8493    2.7606    4.9430 C   0  0  0  0  0  0  0  0  0  0  0  0
   -4.9184    3.6765    6.1289 C   0  0  0  0  0  0  0  0  0  0  0  0
   -3.9476    1.6936    4.9229 C   0  0  0  0  0  0  0  0  0  0  0  0
   -3.8482    0.8462    3.8063 C   0  0  0  0  0  0  0  0  0  0  0  0
   -2.8661   -0.2967    3.8496 C   0  0  0  0  0  0  0  0  0  0  0  0
   -3.7215    0.4741    0.4358 C   0  0  0  0  0  0  0  0  0  0  0  0
   -3.2618    0.4910   -2.9701 C   0  0  0  0  0  0  0  0  0  0  0  0
   -2.4391    0.8256   -4.0523 C   0  0  0  0  0  0  0  0  0  0  0  0
   -1.0525    0.5373   -4.0000 C   0  0  0  0  0  0  0  0  0  0  0  0
   -0.1568    1.1268   -5.0837 C   0  0  0  0  0  0  0  0  0  0  0  0
   -0.8737    1.3799   -6.4069 C   0  0  0  0  0  0  0  0  0  0  0  0
   -2.1285    2.2016   -6.1673 C   0  0  0  0  0  0  0  0  0  0  0  0
   -3.0929    1.4368   -5.2708 C   0  0  0  0  0  0  0  0  0  0  0  0
   -0.4805   -0.1122   -2.8571 C   0  0  0  0  0  0  0  0  0  0  0  0
    0.8872   -0.5719   -2.7996 C   0  0  0  0  0  0  0  0  0  0  0  0
    1.7675   -0.1734   -1.7621 C   0  0  0  0  0  0  0  0  0  0  0  0
    1.3017    0.6153   -0.7308 O   0  0  0  0  0  0  0  0  0  0  0  0
    3.1609   -0.4393   -1.7758 C   0  0  0  0  0  0  0  0  0  0  0  0
    4.0487    0.0953   -0.7334 C   0  0  0  0  0  0  0  0  0  0  0  0
    3.9152   -0.3484    0.5844 C   0  0  0  0  0  0  0  0  0  0  0  0
    4.5645    0.2908    1.6477 C   0  0  0  0  0  0  0  0  0  0  0  0
    4.1610   -0.0474    3.0200 C   0  0  0  0  0  0  0  0  0  0  0  0
    3.0996    0.6709    3.6301 C   0  0  0  0  0  0  0  0  0  0  0  0
    2.4996    1.9018    2.9941 C   0  0  0  0  0  0  0  0  0  0  0  0
    2.6019    0.2542    4.8718 C   0  0  0  0  0  0  0  0  0  0  0  0
    3.1656   -0.8321    5.5474 C   0  0  0  0  0  0  0  0  0  0  0  0
    2.6055   -1.2803    6.8646 C   0  0  0  0  0  0  0  0  0  0  0  0
    4.2241   -1.5267    4.9542 C   0  0  0  0  0  0  0  0  0  0  0  0
    4.7325   -1.1461    3.7012 C   0  0  0  0  0  0  0  0  0  0  0  0
    5.8504   -1.9532    3.0939 C   0  0  0  0  0  0  0  0  0  0  0  0
    5.4746    1.3130    1.3629 C   0  0  0  0  0  0  0  0  0  0  0  0
    5.6981    1.7272    0.0395 C   0  0  0  0  0  0  0  0  0  0  0  0
    6.6381    2.8235   -0.2513 C   0  0  0  0  0  0  0  0  0  0  0  0
    6.1879    4.1663   -0.2905 C   0  0  0  0  0  0  0  0  0  0  0  0
    4.7433    4.5206   -0.0430 C   0  0  0  0  0  0  0  0  0  0  0  0
    7.0972    5.2004   -0.5696 C   0  0  0  0  0  0  0  0  0  0  0  0
    8.4492    4.9322   -0.7981 C   0  0  0  0  0  0  0  0  0  0  0  0
    9.4004    6.0447   -1.1263 C   0  0  0  0  0  0  0  0  0  0  0  0
    8.8905    3.6069   -0.7732 C   0  0  0  0  0  0  0  0  0  0  0  0
    8.0053    2.5507   -0.4991 C   0  0  0  0  0  0  0  0  0  0  0  0
    8.5419    1.1422   -0.4776 C   0  0  0  0  0  0  0  0  0  0  0  0
    4.9673    1.1194   -0.9973 C   0  0  0  0  0  0  0  0  0  0  0  0
    3.6818   -1.2162   -2.8105 C   0  0  0  0  0  0  0  0  0  0  0  0
    2.8363   -1.7488   -3.7823 C   0  0  0  0  0  0  0  0  0  0  0  0
    1.4527   -1.4477   -3.7723 C   0  0  0  0  0  0  0  0  0  0  0  0
    0.6179   -2.1671   -4.8229 C   0  0  0  0  0  0  0  0  0  0  0  0
    1.0167   -3.6420   -4.9058 C   0  0  0  0  0  0  0  0  0  0  0  0
    2.5204   -3.8691   -5.0939 C   0  0  0  0  0  0  0  0  0  0  0  0
    3.3791   -2.6223   -4.8839 C   0  0  0  0  0  0  0  0  0  0  0  0
    1.0997   -0.5450    2.0899 H   0  0  0  0  0  0  0  0  0  0  0  0
   -4.3654   -2.1926   -1.5732 H   0  0  0  0  0  0  0  0  0  0  0  0
   -4.1776   -5.3881    1.8826 H   0  0  0  0  0  0  0  0  0  0  0  0
   -3.5626   -4.0855    0.8679 H   0  0  0  0  0  0  0  0  0  0  0  0
   -4.3584   -3.7192    2.4288 H   0  0  0  0  0  0  0  0  0  0  0  0
   -6.1881   -6.3350    1.2338 H   0  0  0  0  0  0  0  0  0  0  0  0
   -8.0317   -7.5019    0.0767 H   0  0  0  0  0  0  0  0  0  0  0  0
   -9.2831   -6.6130    0.9802 H   0  0  0  0  0  0  0  0  0  0  0  0
   -9.2621   -6.5943   -0.8007 H   0  0  0  0  0  0  0  0  0  0  0  0
   -9.1768   -4.1286   -0.9056 H   0  0  0  0  0  0  0  0  0  0  0  0
   -8.9496   -1.8830   -1.3946 H   0  0  0  0  0  0  0  0  0  0  0  0
   -8.0116   -0.9429   -0.2359 H   0  0  0  0  0  0  0  0  0  0  0  0
   -7.2990   -1.4169   -1.8082 H   0  0  0  0  0  0  0  0  0  0  0  0
   -6.0531   -1.2083    2.2545 H   0  0  0  0  0  0  0  0  0  0  0  0
   -7.1076    3.3256    1.7036 H   0  0  0  0  0  0  0  0  0  0  0  0
   -5.8544    2.7064    0.6270 H   0  0  0  0  0  0  0  0  0  0  0  0
   -7.1079    1.6127    1.2881 H   0  0  0  0  0  0  0  0  0  0  0  0
   -6.3328    3.8395    3.8216 H   0  0  0  0  0  0  0  0  0  0  0  0
   -4.2101    4.5016    6.0061 H   0  0  0  0  0  0  0  0  0  0  0  0
   -4.6794    3.1390    7.0525 H   0  0  0  0  0  0  0  0  0  0  0  0
   -5.9261    4.0890    6.2459 H   0  0  0  0  0  0  0  0  0  0  0  0
   -3.3115    1.5178    5.7881 H   0  0  0  0  0  0  0  0  0  0  0  0
   -2.2773   -0.2844    4.7732 H   0  0  0  0  0  0  0  0  0  0  0  0
   -3.3942   -1.2547    3.8103 H   0  0  0  0  0  0  0  0  0  0  0  0
   -2.1595   -0.2317    3.0168 H   0  0  0  0  0  0  0  0  0  0  0  0
   -3.1090    1.3747    0.4831 H   0  0  0  0  0  0  0  0  0  0  0  0
   -4.3319    0.6892   -3.0267 H   0  0  0  0  0  0  0  0  0  0  0  0
    0.7137    0.5076   -5.2967 H   0  0  0  0  0  0  0  0  0  0  0  0
    0.2290    2.0803   -4.6985 H   0  0  0  0  0  0  0  0  0  0  0  0
   -1.1345    0.4265   -6.8833 H   0  0  0  0  0  0  0  0  0  0  0  0
   -0.2039    1.9123   -7.0916 H   0  0  0  0  0  0  0  0  0  0  0  0
   -2.6163    2.4375   -7.1197 H   0  0  0  0  0  0  0  0  0  0  0  0
   -1.8600    3.1568   -5.6985 H   0  0  0  0  0  0  0  0  0  0  0  0
   -3.5553    0.6240   -5.8453 H   0  0  0  0  0  0  0  0  0  0  0  0
   -3.8957    2.1182   -4.9637 H   0  0  0  0  0  0  0  0  0  0  0  0
    3.2313   -1.1673    0.7991 H   0  0  0  0  0  0  0  0  0  0  0  0
    1.5907    2.2189    3.5168 H   0  0  0  0  0  0  0  0  0  0  0  0
    3.2148    2.7294    3.0350 H   0  0  0  0  0  0  0  0  0  0  0  0
    2.2176    1.7163    1.9544 H   0  0  0  0  0  0  0  0  0  0  0  0
    1.7750    0.7949    5.3281 H   0  0  0  0  0  0  0  0  0  0  0  0
    3.3836   -1.7366    7.4856 H   0  0  0  0  0  0  0  0  0  0  0  0
    2.1994   -0.4322    7.4260 H   0  0  0  0  0  0  0  0  0  0  0  0
    1.8080   -2.0118    6.7024 H   0  0  0  0  0  0  0  0  0  0  0  0
    4.6559   -2.3816    5.4727 H   0  0  0  0  0  0  0  0  0  0  0  0
    6.2821   -2.6482    3.8223 H   0  0  0  0  0  0  0  0  0  0  0  0
    6.6618   -1.2998    2.7577 H   0  0  0  0  0  0  0  0  0  0  0  0
    5.4782   -2.5413    2.2492 H   0  0  0  0  0  0  0  0  0  0  0  0
    5.9888    1.8186    2.1786 H   0  0  0  0  0  0  0  0  0  0  0  0
    4.5814    5.6028   -0.0940 H   0  0  0  0  0  0  0  0  0  0  0  0
    4.1005    4.0592   -0.7992 H   0  0  0  0  0  0  0  0  0  0  0  0
    4.4331    4.1937    0.9545 H   0  0  0  0  0  0  0  0  0  0  0  0
    6.7453    6.2298   -0.6073 H   0  0  0  0  0  0  0  0  0  0  0  0
    9.0997    6.9747   -0.6322 H   0  0  0  0  0  0  0  0  0  0  0  0
   10.4127    5.8079   -0.7821 H   0  0  0  0  0  0  0  0  0  0  0  0
    9.4238    6.2100   -2.2078 H   0  0  0  0  0  0  0  0  0  0  0  0
    9.9392    3.3916   -0.9695 H   0  0  0  0  0  0  0  0  0  0  0  0
    9.6144    1.1180   -0.6990 H   0  0  0  0  0  0  0  0  0  0  0  0
    8.0402    0.5294   -1.2332 H   0  0  0  0  0  0  0  0  0  0  0  0
    8.4037    0.6947    0.5118 H   0  0  0  0  0  0  0  0  0  0  0  0
    5.0901    1.4829   -2.0165 H   0  0  0  0  0  0  0  0  0  0  0  0
    4.7477   -1.4343   -2.8373 H   0  0  0  0  0  0  0  0  0  0  0  0
    0.7651   -1.6878   -5.7974 H   0  0  0  0  0  0  0  0  0  0  0  0
   -0.4503   -2.1263   -4.5896 H   0  0  0  0  0  0  0  0  0  0  0  0
    0.4638   -4.1318   -5.7160 H   0  0  0  0  0  0  0  0  0  0  0  0
    0.7049   -4.1437   -3.9796 H   0  0  0  0  0  0  0  0  0  0  0  0
    2.7154   -4.2716   -6.0954 H   0  0  0  0  0  0  0  0  0  0  0  0
    2.8391   -4.6505   -4.3916 H   0  0  0  0  0  0  0  0  0  0  0  0
    4.4110   -2.9280   -4.6750 H   0  0  0  0  0  0  0  0  0  0  0  0
    3.4073   -2.0286   -5.8065 H   0  0  0  0  0  0  0  0  0  0  0  0
  2  1  2  0  0  0  0
  2  3  1  0  0  0  0
  3 74  1  0  0  0  0
  4  2  1  0  0  0  0
  5  4  1  0  0  0  0
  6  5  1  0  0  0  0
  6  7  1  0  0  0  0
  7 30  1  0  0  0  0
  8  7  2  0  0  0  0
  8  9  1  0  0  0  0
  9 19  2  0  0  0  0
 10  9  1  0  0  0  0
 10 11  2  0  0  0  0
 11 12  1  0  0  0  0
 12 76  1  0  0  0  0
 12 78  1  0  0  0  0
 13 11  1  0  0  0  0
 13 79  1  0  0  0  0
 14 13  2  0  0  0  0
 15 14  1  0  0  0  0
 15 81  1  0  0  0  0
 16 17  2  0  0  0  0
 16 14  1  0  0  0  0
 17 10  1  0  0  0  0
 18 17  1  0  0  0  0
 18 85  1  0  0  0  0
 19 20  1  0  0  0  0
 19 87  1  0  0  0  0
 20 21  1  0  0  0  0
 21 22  2  0  0  0  0
 21 28  1  0  0  0  0
 22 24  1  0  0  0  0
 23 88  1  0  0  0  0
 23 22  1  0  0  0  0
 24 91  1  0  0  0  0
 24 25  2  0  0  0  0
 25 26  1  0  0  0  0
 26 94  1  0  0  0  0
 26 93  1  0  0  0  0
 27 25  1  0  0  0  0
 27 95  1  0  0  0  0
 28 29  1  0  0  0  0
 28 27  2  0  0  0  0
 29 96  1  0  0  0  0
 30 99  1  0  0  0  0
 30 20  2  0  0  0  0
 31  6  2  0  0  0  0
 32 33  2  0  0  0  0
 32 31  1  0  0  0  0
 33 38  1  0  0  0  0
 34102  1  0  0  0  0
 34 33  1  0  0  0  0
 35 36  1  0  0  0  0
 35 34  1  0  0  0  0
 36106  1  0  0  0  0
 36 37  1  0  0  0  0
 37108  1  0  0  0  0
 37 32  1  0  0  0  0
 38 39  1  0  0  0  0
 38  5  2  0  0  0  0
 39 40  2  0  0  0  0
 40 41  1  0  0  0  0
 41  2  1  0  0  0  0
 42 40  1  0  0  0  0
 42 43  1  0  0  0  0
 43 44  1  0  0  0  0
 44109  1  0  0  0  0
 44 45  2  0  0  0  0
 45 46  1  0  0  0  0
 46 47  2  0  0  0  0
 46 53  1  0  0  0  0
 47 49  1  0  0  0  0
 48111  1  0  0  0  0
 48110  1  0  0  0  0
 48 47  1  0  0  0  0
 49113  1  0  0  0  0
 49 50  2  0  0  0  0
 50 51  1  0  0  0  0
 51115  1  0  0  0  0
 51114  1  0  0  0  0
 52117  1  0  0  0  0
 52 50  1  0  0  0  0
 53 52  2  0  0  0  0
 54 53  1  0  0  0  0
 54118  1  0  0  0  0
 55 45  1  0  0  0  0
 55121  1  0  0  0  0
 56 55  2  0  0  0  0
 57 56  1  0  0  0  0
 58 57  1  0  0  0  0
 58 59  1  0  0  0  0
 59124  1  0  0  0  0
 60 58  2  0  0  0  0
 61 63  2  0  0  0  0
 61 60  1  0  0  0  0
 62 61  1  0  0  0  0
 62127  1  0  0  0  0
 62126  1  0  0  0  0
 63 64  1  0  0  0  0
 64 65  1  0  0  0  0
 64 57  2  0  0  0  0
 65132  1  0  0  0  0
 66 43  2  0  0  0  0
 66 56  1  0  0  0  0
 67 42  2  0  0  0  0
 68 69  2  0  0  0  0
 68 67  1  0  0  0  0
 69 39  1  0  0  0  0
 70136  1  0  0  0  0
 70 69  1  0  0  0  0
 71 70  1  0  0  0  0
 71138  1  0  0  0  0
 72 71  1  0  0  0  0
 72 73  1  0  0  0  0
 72140  1  0  0  0  0
 73141  1  0  0  0  0
 73 68  1  0  0  0  0
 75  8  1  0  0  0  0
 77 12  1  0  0  0  0
 80 15  1  0  0  0  0
 82 15  1  0  0  0  0
 83 16  1  0  0  0  0
 84 18  1  0  0  0  0
 86 18  1  0  0  0  0
 89 23  1  0  0  0  0
 90 23  1  0  0  0  0
 92 26  1  0  0  0  0
 97 29  1  0  0  0  0
 98 29  1  0  0  0  0
100 31  1  0  0  0  0
101 34  1  0  0  0  0
103 35  1  0  0  0  0
104 35  1  0  0  0  0
105 36  1  0  0  0  0
107 37  1  0  0  0  0
112 48  1  0  0  0  0
116 51  1  0  0  0  0
119 54  1  0  0  0  0
120 54  1  0  0  0  0
122 59  1  0  0  0  0
123 59  1  0  0  0  0
125 60  1  0  0  0  0
128 62  1  0  0  0  0
129 63  1  0  0  0  0
130 65  1  0  0  0  0
131 65  1  0  0  0  0
133 66  1  0  0  0  0
134 67  1  0  0  0  0
135 70  1  0  0  0  0
137 71  1  0  0  0  0
139 72  1  0  0  0  0
142 73  1  0  0  0  0
M  END
$$$$
