O=P1(O)OC2=C([Si](C3=CC=CC=C3)(C4=CC=CC=C4)C5=CC=CC=C5)C=C6C(CCCC6)=C2C7=C(O1)C([Si](C8=CC=CC=C8)(C9=CC=CC=C9)C%10=CC=CC=C%10)=CC%11=C7CCCC%11
 OpenBabel09032010383D

112122  0  0  0  0  0  0  0  0999 V2000
    1.1243    2.6291    0.3292 O   0  0  0  0  0  0  0  0  0  0  0  0
    0.2180    1.5993   -0.2738 P   0  0  0  0  0  0  0  0  0  0  0  0
   -0.6252    2.1627   -1.5212 O   0  0  0  0  0  0  0  0  0  0  0  0
   -0.9011    1.0104    0.7275 O   0  0  0  0  0  0  0  0  0  0  0  0
   -1.4998   -0.2089    0.5214 C   0  0  0  0  0  0  0  0  0  0  0  0
   -2.9084   -0.2464    0.4241 C   0  0  0  0  0  0  0  0  0  0  0  0
   -4.0440    1.2443    0.5525 Si  0  0  0  0  0  0  0  0  0  0  0  0
   -5.5681    0.7217    1.5503 C   0  0  0  0  0  0  0  0  0  0  0  0
   -5.6921    0.9910    2.9260 C   0  0  0  0  0  0  0  0  0  0  0  0
   -6.8200    0.5865    3.6480 C   0  0  0  0  0  0  0  0  0  0  0  0
   -7.8521   -0.0954    3.0131 C   0  0  0  0  0  0  0  0  0  0  0  0
   -7.7608   -0.3715    1.6540 C   0  0  0  0  0  0  0  0  0  0  0  0
   -6.6345    0.0325    0.9315 C   0  0  0  0  0  0  0  0  0  0  0  0
   -3.2505    2.7237    1.3578 C   0  0  0  0  0  0  0  0  0  0  0  0
   -3.2604    3.9953    0.7515 C   0  0  0  0  0  0  0  0  0  0  0  0
   -2.6655    5.1018    1.3670 C   0  0  0  0  0  0  0  0  0  0  0  0
   -2.0428    4.9657    2.6027 C   0  0  0  0  0  0  0  0  0  0  0  0
   -2.0080    3.7219    3.2219 C   0  0  0  0  0  0  0  0  0  0  0  0
   -2.6002    2.6156    2.6058 C   0  0  0  0  0  0  0  0  0  0  0  0
   -4.6693    1.7018   -1.1629 C   0  0  0  0  0  0  0  0  0  0  0  0
   -4.0157    1.2743   -2.3340 C   0  0  0  0  0  0  0  0  0  0  0  0
   -4.5195    1.5958   -3.6003 C   0  0  0  0  0  0  0  0  0  0  0  0
   -5.6783    2.3583   -3.7240 C   0  0  0  0  0  0  0  0  0  0  0  0
   -6.3317    2.8088   -2.5820 C   0  0  0  0  0  0  0  0  0  0  0  0
   -5.8330    2.4871   -1.3167 C   0  0  0  0  0  0  0  0  0  0  0  0
   -3.4824   -1.5092    0.1890 C   0  0  0  0  0  0  0  0  0  0  0  0
   -2.7127   -2.6711    0.0327 C   0  0  0  0  0  0  0  0  0  0  0  0
   -1.3106   -2.6017    0.1495 C   0  0  0  0  0  0  0  0  0  0  0  0
   -0.4770   -3.8311   -0.1934 C   0  0  0  0  0  0  0  0  0  0  0  0
   -1.2330   -4.8920   -0.9919 C   0  0  0  0  0  0  0  0  0  0  0  0
   -2.5618   -5.1885   -0.3183 C   0  0  0  0  0  0  0  0  0  0  0  0
   -3.4398   -3.9438   -0.3403 C   0  0  0  0  0  0  0  0  0  0  0  0
   -0.6764   -1.3738    0.5010 C   0  0  0  0  0  0  0  0  0  0  0  0
    0.7331   -1.3093    0.7797 C   0  0  0  0  0  0  0  0  0  0  0  0
    1.5780   -0.5334   -0.0474 C   0  0  0  0  0  0  0  0  0  0  0  0
    0.9567    0.3165   -0.9227 O   0  0  0  0  0  0  0  0  0  0  0  0
    2.9830   -0.5781   -0.0127 C   0  0  0  0  0  0  0  0  0  0  0  0
    4.1266    0.3359   -1.1867 Si  0  0  0  0  0  0  0  0  0  0  0  0
    5.3774    1.2109   -0.1064 C   0  0  0  0  0  0  0  0  0  0  0  0
    4.9410    2.0332    0.9553 C   0  0  0  0  0  0  0  0  0  0  0  0
    5.8508    2.6893    1.7877 C   0  0  0  0  0  0  0  0  0  0  0  0
    7.2172    2.5348    1.5836 C   0  0  0  0  0  0  0  0  0  0  0  0
    7.6738    1.7235    0.5494 C   0  0  0  0  0  0  0  0  0  0  0  0
    6.7650    1.0664   -0.2859 C   0  0  0  0  0  0  0  0  0  0  0  0
    4.9841   -0.8735   -2.3307 C   0  0  0  0  0  0  0  0  0  0  0  0
    4.8846   -2.2681   -2.1688 C   0  0  0  0  0  0  0  0  0  0  0  0
    5.5351   -3.1469   -3.0412 C   0  0  0  0  0  0  0  0  0  0  0  0
    6.2941   -2.6537   -4.0978 C   0  0  0  0  0  0  0  0  0  0  0  0
    6.4014   -1.2804   -4.2875 C   0  0  0  0  0  0  0  0  0  0  0  0
    5.7524   -0.4005   -3.4168 C   0  0  0  0  0  0  0  0  0  0  0  0
    3.2355    1.5609   -2.2816 C   0  0  0  0  0  0  0  0  0  0  0  0
    2.4029    1.1073   -3.3274 C   0  0  0  0  0  0  0  0  0  0  0  0
    1.6368    1.9969   -4.0838 C   0  0  0  0  0  0  0  0  0  0  0  0
    1.7108    3.3628   -3.8390 C   0  0  0  0  0  0  0  0  0  0  0  0
    2.5684    3.8428   -2.8562 C   0  0  0  0  0  0  0  0  0  0  0  0
    3.3229    2.9521   -2.0864 C   0  0  0  0  0  0  0  0  0  0  0  0
    3.5495   -1.3644    1.0078 C   0  0  0  0  0  0  0  0  0  0  0  0
    2.7650   -2.0518    1.9482 C   0  0  0  0  0  0  0  0  0  0  0  0
    1.3583   -2.0035    1.8568 C   0  0  0  0  0  0  0  0  0  0  0  0
    0.5125   -2.6189    2.9628 C   0  0  0  0  0  0  0  0  0  0  0  0
    1.2866   -2.8897    4.2521 C   0  0  0  0  0  0  0  0  0  0  0  0
    2.5735   -3.6326    3.9332 C   0  0  0  0  0  0  0  0  0  0  0  0
    3.4810   -2.7554    3.0789 C   0  0  0  0  0  0  0  0  0  0  0  0
   -0.0395    2.6455   -2.1363 H   0  0  0  0  0  0  0  0  0  0  0  0
   -4.9197    1.5260    3.4719 H   0  0  0  0  0  0  0  0  0  0  0  0
   -6.8883    0.8082    4.7100 H   0  0  0  0  0  0  0  0  0  0  0  0
   -8.7259   -0.4085    3.5769 H   0  0  0  0  0  0  0  0  0  0  0  0
   -8.5656   -0.9012    1.1512 H   0  0  0  0  0  0  0  0  0  0  0  0
   -6.6055   -0.2031   -0.1325 H   0  0  0  0  0  0  0  0  0  0  0  0
   -3.7262    4.1543   -0.2199 H   0  0  0  0  0  0  0  0  0  0  0  0
   -2.6905    6.0712    0.8760 H   0  0  0  0  0  0  0  0  0  0  0  0
   -1.5810    5.8260    3.0790 H   0  0  0  0  0  0  0  0  0  0  0  0
   -1.5159    3.6074    4.1841 H   0  0  0  0  0  0  0  0  0  0  0  0
   -2.5313    1.6544    3.1157 H   0  0  0  0  0  0  0  0  0  0  0  0
   -3.1016    0.6826   -2.2818 H   0  0  0  0  0  0  0  0  0  0  0  0
   -4.0061    1.2470   -4.4932 H   0  0  0  0  0  0  0  0  0  0  0  0
   -6.0721    2.6026   -4.7080 H   0  0  0  0  0  0  0  0  0  0  0  0
   -7.2340    3.4086   -2.6719 H   0  0  0  0  0  0  0  0  0  0  0  0
   -6.3741    2.8558   -0.4446 H   0  0  0  0  0  0  0  0  0  0  0  0
   -4.5623   -1.6115    0.0805 H   0  0  0  0  0  0  0  0  0  0  0  0
   -0.1173   -4.3004    0.7244 H   0  0  0  0  0  0  0  0  0  0  0  0
    0.3976   -3.5348   -0.7848 H   0  0  0  0  0  0  0  0  0  0  0  0
   -1.4023   -4.5442   -2.0188 H   0  0  0  0  0  0  0  0  0  0  0  0
   -0.6288   -5.8039   -1.0556 H   0  0  0  0  0  0  0  0  0  0  0  0
   -2.3894   -5.5084    0.7172 H   0  0  0  0  0  0  0  0  0  0  0  0
   -3.0742   -6.0121   -0.8278 H   0  0  0  0  0  0  0  0  0  0  0  0
   -3.8459   -3.8143   -1.3519 H   0  0  0  0  0  0  0  0  0  0  0  0
   -4.2874   -4.0974    0.3385 H   0  0  0  0  0  0  0  0  0  0  0  0
    3.8762    2.1795    1.1493 H   0  0  0  0  0  0  0  0  0  0  0  0
    5.4866    3.3193    2.5953 H   0  0  0  0  0  0  0  0  0  0  0  0
    7.9251    3.0435    2.2315 H   0  0  0  0  0  0  0  0  0  0  0  0
    8.7416    1.5965    0.3911 H   0  0  0  0  0  0  0  0  0  0  0  0
    7.1697    0.4337   -1.0737 H   0  0  0  0  0  0  0  0  0  0  0  0
    4.2950   -2.7049   -1.3650 H   0  0  0  0  0  0  0  0  0  0  0  0
    5.4434   -4.2200   -2.8936 H   0  0  0  0  0  0  0  0  0  0  0  0
    6.7965   -3.3392   -4.7746 H   0  0  0  0  0  0  0  0  0  0  0  0
    6.9881   -0.8896   -5.1149 H   0  0  0  0  0  0  0  0  0  0  0  0
    5.8562    0.6695   -3.6017 H   0  0  0  0  0  0  0  0  0  0  0  0
    2.2995    0.0406   -3.5328 H   0  0  0  0  0  0  0  0  0  0  0  0
    0.9561    1.6177   -4.8401 H   0  0  0  0  0  0  0  0  0  0  0  0
    1.0813    4.0471   -4.3973 H   0  0  0  0  0  0  0  0  0  0  0  0
    2.6403    4.9118   -2.6670 H   0  0  0  0  0  0  0  0  0  0  0  0
    3.9564    3.3751   -1.3081 H   0  0  0  0  0  0  0  0  0  0  0  0
    4.6359   -1.4192    1.1139 H   0  0  0  0  0  0  0  0  0  0  0  0
   -0.3205   -1.9493    3.2084 H   0  0  0  0  0  0  0  0  0  0  0  0
    0.0885   -3.5656    2.6218 H   0  0  0  0  0  0  0  0  0  0  0  0
    1.5163   -1.9450    4.7609 H   0  0  0  0  0  0  0  0  0  0  0  0
    0.6670   -3.4814    4.9352 H   0  0  0  0  0  0  0  0  0  0  0  0
    3.0925   -3.9121    4.8568 H   0  0  0  0  0  0  0  0  0  0  0  0
    2.3413   -4.5635    3.4004 H   0  0  0  0  0  0  0  0  0  0  0  0
    4.2917   -3.3737    2.6749 H   0  0  0  0  0  0  0  0  0  0  0  0
    3.9370   -1.9877    3.7172 H   0  0  0  0  0  0  0  0  0  0  0  0
  2  1  2  0  0  0  0
  2  4  1  0  0  0  0
  3  2  1  0  0  0  0
  5  4  1  0  0  0  0
  6  5  1  0  0  0  0
  6  7  1  0  0  0  0
  7 14  1  0  0  0  0
  7  8  1  0  0  0  0
  8  9  1  0  0  0  0
  9 65  1  0  0  0  0
  9 10  2  0  0  0  0
 10 66  1  0  0  0  0
 11 67  1  0  0  0  0
 11 10  1  0  0  0  0
 12 11  2  0  0  0  0
 13  8  2  0  0  0  0
 13 12  1  0  0  0  0
 14 19  1  0  0  0  0
 15 14  2  0  0  0  0
 15 16  1  0  0  0  0
 16 17  2  0  0  0  0
 17 72  1  0  0  0  0
 17 18  1  0  0  0  0
 18 73  1  0  0  0  0
 19 74  1  0  0  0  0
 19 18  2  0  0  0  0
 20  7  1  0  0  0  0
 21 75  1  0  0  0  0
 21 20  2  0  0  0  0
 22 21  1  0  0  0  0
 23 22  2  0  0  0  0
 23 24  1  0  0  0  0
 24 25  2  0  0  0  0
 25 20  1  0  0  0  0
 25 79  1  0  0  0  0
 26  6  2  0  0  0  0
 27 28  2  0  0  0  0
 27 26  1  0  0  0  0
 28 33  1  0  0  0  0
 29 28  1  0  0  0  0
 29 81  1  0  0  0  0
 30 31  1  0  0  0  0
 30 29  1  0  0  0  0
 31 85  1  0  0  0  0
 32 31  1  0  0  0  0
 32 27  1  0  0  0  0
 32 88  1  0  0  0  0
 33  5  2  0  0  0  0
 33 34  1  0  0  0  0
 34 59  2  0  0  0  0
 35 37  2  0  0  0  0
 35 34  1  0  0  0  0
 36  2  1  0  0  0  0
 36 35  1  0  0  0  0
 37 57  1  0  0  0  0
 38 39  1  0  0  0  0
 38 37  1  0  0  0  0
 39 40  1  0  0  0  0
 40 89  1  0  0  0  0
 40 41  2  0  0  0  0
 41 90  1  0  0  0  0
 42 41  1  0  0  0  0
 42 91  1  0  0  0  0
 43 42  2  0  0  0  0
 44 39  2  0  0  0  0
 44 43  1  0  0  0  0
 45 46  1  0  0  0  0
 45 38  1  0  0  0  0
 46 94  1  0  0  0  0
 47 95  1  0  0  0  0
 47 46  2  0  0  0  0
 48 47  1  0  0  0  0
 49 48  2  0  0  0  0
 49 50  1  0  0  0  0
 50 45  2  0  0  0  0
 51 56  1  0  0  0  0
 51 38  1  0  0  0  0
 52 51  2  0  0  0  0
 53 54  2  0  0  0  0
 53 52  1  0  0  0  0
 54 55  1  0  0  0  0
 55102  1  0  0  0  0
 55 56  2  0  0  0  0
 56103  1  0  0  0  0
 57104  1  0  0  0  0
 57 58  2  0  0  0  0
 58 63  1  0  0  0  0
 59 58  1  0  0  0  0
 59 60  1  0  0  0  0
 60105  1  0  0  0  0
 60 61  1  0  0  0  0
 61107  1  0  0  0  0
 61108  1  0  0  0  0
 62 61  1  0  0  0  0
 62109  1  0  0  0  0
 63112  1  0  0  0  0
 63 62  1  0  0  0  0
 64  3  1  0  0  0  0
 68 12  1  0  0  0  0
 69 13  1  0  0  0  0
 70 15  1  0  0  0  0
 71 16  1  0  0  0  0
 76 22  1  0  0  0  0
 77 23  1  0  0  0  0
 78 24  1  0  0  0  0
 80 26  1  0  0  0  0
 82 29  1  0  0  0  0
 83 30  1  0  0  0  0
 84 30  1  0  0  0  0
 86 31  1  0  0  0  0
 87 32  1  0  0  0  0
 92 43  1  0  0  0  0
 93 44  1  0  0  0  0
 96 48  1  0  0  0  0
 97 49  1  0  0  0  0
 98 50  1  0  0  0  0
 99 52  1  0  0  0  0
100 53  1  0  0  0  0
101 54  1  0  0  0  0
106 60  1  0  0  0  0
110 62  1  0  0  0  0
111 63  1  0  0  0  0
M  END
$$$$
