O=P1(O)OC2=C(C3=C(F)C=C(OC)C=C3F)C=C4C(C=CC=C4)=[C@]2[C@]5=C(O1)C(C6=C(F)C=C(OC)C=C6F)=CC7=C5C=CC=C7
 OpenBabel09032010373D

 66 72  0  0  0  0  0  0  0  0999 V2000
   -0.5625    2.6444   -0.5635 O   0  0  0  0  0  0  0  0  0  0  0  0
    0.0389    1.5419    0.2507 P   0  0  0  0  0  0  0  0  0  0  0  0
    0.8765    2.1412    1.4858 O   0  0  0  0  0  0  0  0  0  0  0  0
    1.0895    0.5952   -0.5160 O   0  0  0  0  0  0  0  0  0  0  0  0
    1.5228   -0.5599    0.1018 C   0  0  0  0  0  0  0  0  0  0  0  0
    2.8886   -0.6122    0.4384 C   0  0  0  0  0  0  0  0  0  0  0  0
    3.8025    0.5111    0.1793 C   0  0  0  0  0  0  0  0  0  0  0  0
    4.1144    0.9231   -1.1217 C   0  0  0  0  0  0  0  0  0  0  0  0
    3.6036    0.2666   -2.1752 F   0  0  0  0  0  0  0  0  0  0  0  0
    4.9649    2.0026   -1.3768 C   0  0  0  0  0  0  0  0  0  0  0  0
    5.5340    2.7022   -0.3165 C   0  0  0  0  0  0  0  0  0  0  0  0
    6.3778    3.7725   -0.4182 O   0  0  0  0  0  0  0  0  0  0  0  0
    6.6673    4.2434   -1.7296 C   0  0  0  0  0  0  0  0  0  0  0  0
    5.2476    2.3040    0.9887 C   0  0  0  0  0  0  0  0  0  0  0  0
    4.3961    1.2252    1.2254 C   0  0  0  0  0  0  0  0  0  0  0  0
    4.1526    0.8803    2.4995 F   0  0  0  0  0  0  0  0  0  0  0  0
    3.3646   -1.7741    1.0489 C   0  0  0  0  0  0  0  0  0  0  0  0
    2.5158   -2.8437    1.3479 C   0  0  0  0  0  0  0  0  0  0  0  0
    1.1383   -2.7808    1.0059 C   0  0  0  0  0  0  0  0  0  0  0  0
    0.3376   -3.8688    1.4405 C   0  0  0  0  0  0  0  0  0  0  0  0
    0.8689   -4.9780    2.1043 C   0  0  0  0  0  0  0  0  0  0  0  0
    2.2254   -5.0325    2.3785 C   0  0  0  0  0  0  0  0  0  0  0  0
    3.0412   -3.9674    2.0091 C   0  0  0  0  0  0  0  0  0  0  0  0
    0.6145   -1.6322    0.3070 C   0  0  0  0  0  0  0  0  0  0  0  0
   -0.7501   -1.5415   -0.1760 C   0  0  0  0  0  0  0  0  0  0  0  0
   -1.5611   -0.4397    0.1944 C   0  0  0  0  0  0  0  0  0  0  0  0
   -1.0117    0.5584    0.9691 O   0  0  0  0  0  0  0  0  0  0  0  0
   -2.9206   -0.3109   -0.1410 C   0  0  0  0  0  0  0  0  0  0  0  0
   -3.7225    0.8502    0.2734 C   0  0  0  0  0  0  0  0  0  0  0  0
   -4.0086    1.1099    1.6173 C   0  0  0  0  0  0  0  0  0  0  0  0
   -3.5752    0.2736    2.5730 F   0  0  0  0  0  0  0  0  0  0  0  0
   -4.7512    2.2242    2.0077 C   0  0  0  0  0  0  0  0  0  0  0  0
   -5.2329    3.1204    1.0538 C   0  0  0  0  0  0  0  0  0  0  0  0
   -5.9410    4.1735    1.5612 O   0  0  0  0  0  0  0  0  0  0  0  0
   -6.4242    5.1346    0.6292 C   0  0  0  0  0  0  0  0  0  0  0  0
   -4.9695    2.8814   -0.2918 C   0  0  0  0  0  0  0  0  0  0  0  0
   -4.2269    1.7583   -0.6655 C   0  0  0  0  0  0  0  0  0  0  0  0
   -4.0013    1.5627   -1.9743 F   0  0  0  0  0  0  0  0  0  0  0  0
   -3.4960   -1.3228   -0.9118 C   0  0  0  0  0  0  0  0  0  0  0  0
   -2.7461   -2.4114   -1.3683 C   0  0  0  0  0  0  0  0  0  0  0  0
   -1.3704   -2.5242   -1.0309 C   0  0  0  0  0  0  0  0  0  0  0  0
   -0.6675   -3.6044   -1.6240 C   0  0  0  0  0  0  0  0  0  0  0  0
   -1.2926   -4.5525   -2.4385 C   0  0  0  0  0  0  0  0  0  0  0  0
   -2.6469   -4.4440   -2.7084 C   0  0  0  0  0  0  0  0  0  0  0  0
   -3.3661   -3.3749   -2.1823 C   0  0  0  0  0  0  0  0  0  0  0  0
    0.4783    2.9771    1.7876 H   0  0  0  0  0  0  0  0  0  0  0  0
    5.1534    2.2578   -2.4132 H   0  0  0  0  0  0  0  0  0  0  0  0
    7.1918    3.4807   -2.3144 H   0  0  0  0  0  0  0  0  0  0  0  0
    5.7571    4.5765   -2.2393 H   0  0  0  0  0  0  0  0  0  0  0  0
    7.3322    5.1073   -1.6353 H   0  0  0  0  0  0  0  0  0  0  0  0
    5.6805    2.8318    1.8333 H   0  0  0  0  0  0  0  0  0  0  0  0
    4.4184   -1.8326    1.3205 H   0  0  0  0  0  0  0  0  0  0  0  0
   -0.7389   -3.8621    1.2774 H   0  0  0  0  0  0  0  0  0  0  0  0
    0.2149   -5.7904    2.4095 H   0  0  0  0  0  0  0  0  0  0  0  0
    2.6464   -5.8906    2.8951 H   0  0  0  0  0  0  0  0  0  0  0  0
    4.0998   -4.0158    2.2580 H   0  0  0  0  0  0  0  0  0  0  0  0
   -4.9489    2.3859    3.0633 H   0  0  0  0  0  0  0  0  0  0  0  0
   -7.1407    4.6836   -0.0652 H   0  0  0  0  0  0  0  0  0  0  0  0
   -5.5986    5.6123    0.0912 H   0  0  0  0  0  0  0  0  0  0  0  0
   -6.9494    5.9118    1.1926 H   0  0  0  0  0  0  0  0  0  0  0  0
   -5.3151    3.5384   -1.0814 H   0  0  0  0  0  0  0  0  0  0  0  0
   -4.5480   -1.2437   -1.1851 H   0  0  0  0  0  0  0  0  0  0  0  0
    0.4040   -3.7181   -1.4682 H   0  0  0  0  0  0  0  0  0  0  0  0
   -0.7125   -5.3672   -2.8637 H   0  0  0  0  0  0  0  0  0  0  0  0
   -3.1399   -5.1760   -3.3421 H   0  0  0  0  0  0  0  0  0  0  0  0
   -4.4231   -3.2912   -2.4288 H   0  0  0  0  0  0  0  0  0  0  0  0
  1  2  2  0  0  0  0
  2 27  1  0  0  0  0
  2  3  1  0  0  0  0
  3 46  1  0  0  0  0
  4  5  1  0  0  0  0
  4  2  1  0  0  0  0
  5 24  2  0  0  0  0
  5  6  1  0  0  0  0
  6 17  2  0  0  0  0
  7  6  1  0  0  0  0
  7 15  2  0  0  0  0
  8  7  1  0  0  0  0
  9  8  1  0  0  0  0
 10  8  2  0  0  0  0
 10 11  1  0  0  0  0
 11 14  2  0  0  0  0
 12 11  1  0  0  0  0
 13 50  1  0  0  0  0
 13 12  1  0  0  0  0
 14 15  1  0  0  0  0
 14 51  1  0  0  0  0
 15 16  1  0  0  0  0
 17 52  1  0  0  0  0
 17 18  1  0  0  0  0
 18 23  1  0  0  0  0
 19 18  2  0  0  0  0
 19 20  1  0  0  0  0
 20 21  2  0  0  0  0
 21 22  1  0  0  0  0
 21 54  1  0  0  0  0
 22 55  1  0  0  0  0
 23 56  1  0  0  0  0
 23 22  2  0  0  0  0
 24 19  1  0  0  0  0
 25 26  2  0  0  0  0
 25 24  1  0  0  0  0
 26 27  1  0  0  0  0
 28 26  1  0  0  0  0
 28 29  1  0  0  0  0
 29 30  2  0  0  0  0
 30 32  1  0  0  0  0
 30 31  1  0  0  0  0
 32 57  1  0  0  0  0
 33 34  1  0  0  0  0
 33 32  2  0  0  0  0
 35 60  1  0  0  0  0
 35 34  1  0  0  0  0
 36 33  1  0  0  0  0
 37 36  2  0  0  0  0
 37 29  1  0  0  0  0
 38 37  1  0  0  0  0
 39 28  2  0  0  0  0
 40 41  1  0  0  0  0
 40 39  1  0  0  0  0
 41 25  1  0  0  0  0
 42 63  1  0  0  0  0
 42 41  2  0  0  0  0
 43 42  1  0  0  0  0
 44 43  2  0  0  0  0
 44 45  1  0  0  0  0
 45 40  2  0  0  0  0
 47 10  1  0  0  0  0
 48 13  1  0  0  0  0
 49 13  1  0  0  0  0
 53 20  1  0  0  0  0
 58 35  1  0  0  0  0
 59 35  1  0  0  0  0
 61 36  1  0  0  0  0
 62 39  1  0  0  0  0
 64 43  1  0  0  0  0
 65 44  1  0  0  0  0
 66 45  1  0  0  0  0
M  END
$$$$
