O=P1(O)OC2=C(C3=CC(C4=CC=C(OC)C=C4)=CC(C5=CC=C(OC)C=C5)=C3)C=C6C(C=CC=C6)=C2C7=C(O1)C(C8=CC(C9=CC=C(OC)C=C9)=CC(C%10=CC=C(OC)C=C%10)=C8)=CC%11=C7C=CC=C%11
 OpenBabel09032010383D

114124  0  0  0  0  0  0  0  0999 V2000
   -0.0373    0.7120   -1.3754 O   0  0  0  0  0  0  0  0  0  0  0  0
    0.3175    0.1243   -0.0453 P   0  0  0  0  0  0  0  0  0  0  0  0
    0.7159    1.2804    0.9997 O   0  0  0  0  0  0  0  0  0  0  0  0
   -0.8663   -0.6613    0.7115 O   0  0  0  0  0  0  0  0  0  0  0  0
   -1.1985   -1.9056    0.2267 C   0  0  0  0  0  0  0  0  0  0  0  0
   -2.4483   -2.0422   -0.4097 C   0  0  0  0  0  0  0  0  0  0  0  0
   -3.4166   -0.9298   -0.5566 C   0  0  0  0  0  0  0  0  0  0  0  0
   -4.0287   -0.6641   -1.7964 C   0  0  0  0  0  0  0  0  0  0  0  0
   -4.9851    0.3532   -1.9583 C   0  0  0  0  0  0  0  0  0  0  0  0
   -5.6576    0.5692   -3.2518 C   0  0  0  0  0  0  0  0  0  0  0  0
   -6.3114   -0.4859   -3.9096 C   0  0  0  0  0  0  0  0  0  0  0  0
   -6.9809   -0.2868   -5.1251 C   0  0  0  0  0  0  0  0  0  0  0  0
   -7.0097    0.9770   -5.7104 C   0  0  0  0  0  0  0  0  0  0  0  0
   -7.6311    1.3093   -6.8824 O   0  0  0  0  0  0  0  0  0  0  0  0
   -8.3136    0.2664   -7.5670 C   0  0  0  0  0  0  0  0  0  0  0  0
   -6.3581    2.0329   -5.0718 C   0  0  0  0  0  0  0  0  0  0  0  0
   -5.6897    1.8334   -3.8578 C   0  0  0  0  0  0  0  0  0  0  0  0
   -5.3027    1.1417   -0.8412 C   0  0  0  0  0  0  0  0  0  0  0  0
   -4.7097    0.9241    0.4132 C   0  0  0  0  0  0  0  0  0  0  0  0
   -5.0571    1.7688    1.5676 C   0  0  0  0  0  0  0  0  0  0  0  0
   -4.9278    3.1639    1.5047 C   0  0  0  0  0  0  0  0  0  0  0  0
   -5.2600    3.9663    2.6008 C   0  0  0  0  0  0  0  0  0  0  0  0
   -5.7313    3.3971    3.7842 C   0  0  0  0  0  0  0  0  0  0  0  0
   -6.0210    4.2935    4.7751 O   0  0  0  0  0  0  0  0  0  0  0  0
   -6.5613    3.7672    5.9808 C   0  0  0  0  0  0  0  0  0  0  0  0
   -5.8620    2.0122    3.8641 C   0  0  0  0  0  0  0  0  0  0  0  0
   -5.5271    1.2082    2.7656 C   0  0  0  0  0  0  0  0  0  0  0  0
   -3.7820   -0.1243    0.5358 C   0  0  0  0  0  0  0  0  0  0  0  0
   -2.7696   -3.3087   -0.9113 C   0  0  0  0  0  0  0  0  0  0  0  0
   -1.8800   -4.3850   -0.8349 C   0  0  0  0  0  0  0  0  0  0  0  0
   -0.6285   -4.2284   -0.1864 C   0  0  0  0  0  0  0  0  0  0  0  0
    0.2498   -5.3419   -0.2420 C   0  0  0  0  0  0  0  0  0  0  0  0
   -0.1075   -6.5543   -0.8377 C   0  0  0  0  0  0  0  0  0  0  0  0
   -1.3572   -6.6929   -1.4182 C   0  0  0  0  0  0  0  0  0  0  0  0
   -2.2346   -5.6124   -1.4216 C   0  0  0  0  0  0  0  0  0  0  0  0
   -0.2879   -2.9747    0.4362 C   0  0  0  0  0  0  0  0  0  0  0  0
    0.8970   -2.7869    1.2524 C   0  0  0  0  0  0  0  0  0  0  0  0
    1.8199   -1.7495    0.9678 C   0  0  0  0  0  0  0  0  0  0  0  0
    1.5834   -0.8682   -0.0672 O   0  0  0  0  0  0  0  0  0  0  0  0
    3.0714   -1.6272    1.6100 C   0  0  0  0  0  0  0  0  0  0  0  0
    4.0180   -0.5697    1.2356 C   0  0  0  0  0  0  0  0  0  0  0  0
    3.7347    0.7577    1.5687 C   0  0  0  0  0  0  0  0  0  0  0  0
    4.4875    1.8263    1.0644 C   0  0  0  0  0  0  0  0  0  0  0  0
    3.9880    3.1957    1.2476 C   0  0  0  0  0  0  0  0  0  0  0  0
    3.6306    3.6758    2.5171 C   0  0  0  0  0  0  0  0  0  0  0  0
    2.9735    4.9011    2.6686 C   0  0  0  0  0  0  0  0  0  0  0  0
    2.6646    5.6694    1.5489 C   0  0  0  0  0  0  0  0  0  0  0  0
    1.9620    6.8391    1.5467 O   0  0  0  0  0  0  0  0  0  0  0  0
    1.4758    7.3003    2.8005 C   0  0  0  0  0  0  0  0  0  0  0  0
    3.0670    5.2321    0.2872 C   0  0  0  0  0  0  0  0  0  0  0  0
    3.7220    4.0084    0.1356 C   0  0  0  0  0  0  0  0  0  0  0  0
    5.6188    1.5299    0.2916 C   0  0  0  0  0  0  0  0  0  0  0  0
    5.9751    0.2024   -0.0116 C   0  0  0  0  0  0  0  0  0  0  0  0
    7.1403   -0.0896   -0.8601 C   0  0  0  0  0  0  0  0  0  0  0  0
    7.0034   -0.8501   -2.0329 C   0  0  0  0  0  0  0  0  0  0  0  0
    8.1041   -1.1283   -2.8521 C   0  0  0  0  0  0  0  0  0  0  0  0
    9.3672   -0.6498   -2.5115 C   0  0  0  0  0  0  0  0  0  0  0  0
   10.5190   -0.8458   -3.2201 O   0  0  0  0  0  0  0  0  0  0  0  0
   10.4155   -1.6027   -4.4193 C   0  0  0  0  0  0  0  0  0  0  0  0
    9.5178    0.1057   -1.3477 C   0  0  0  0  0  0  0  0  0  0  0  0
    8.4174    0.3855   -0.5309 C   0  0  0  0  0  0  0  0  0  0  0  0
    5.1548   -0.8360    0.4640 C   0  0  0  0  0  0  0  0  0  0  0  0
    3.3924   -2.5293    2.6222 C   0  0  0  0  0  0  0  0  0  0  0  0
    2.4874   -3.5138    3.0232 C   0  0  0  0  0  0  0  0  0  0  0  0
    1.2323   -3.6420    2.3674 C   0  0  0  0  0  0  0  0  0  0  0  0
    0.3458   -4.6110    2.9052 C   0  0  0  0  0  0  0  0  0  0  0  0
    0.6938   -5.4433    3.9729 C   0  0  0  0  0  0  0  0  0  0  0  0
    1.9429   -5.3250    4.5592 C   0  0  0  0  0  0  0  0  0  0  0  0
    2.8306   -4.3609    4.0908 C   0  0  0  0  0  0  0  0  0  0  0  0
    1.0163    2.0817    0.5282 H   0  0  0  0  0  0  0  0  0  0  0  0
   -3.7462   -1.2581   -2.6650 H   0  0  0  0  0  0  0  0  0  0  0  0
   -6.3216   -1.4799   -3.4663 H   0  0  0  0  0  0  0  0  0  0  0  0
   -7.4738   -1.1393   -5.5801 H   0  0  0  0  0  0  0  0  0  0  0  0
   -7.6208   -0.5248   -7.8721 H   0  0  0  0  0  0  0  0  0  0  0  0
   -9.1311   -0.1357   -6.9594 H   0  0  0  0  0  0  0  0  0  0  0  0
   -8.7520    0.6930   -8.4743 H   0  0  0  0  0  0  0  0  0  0  0  0
   -6.3713    3.0229   -5.5215 H   0  0  0  0  0  0  0  0  0  0  0  0
   -5.1879    2.6786   -3.3912 H   0  0  0  0  0  0  0  0  0  0  0  0
   -6.0513    1.9269   -0.9423 H   0  0  0  0  0  0  0  0  0  0  0  0
   -4.5552    3.6399    0.6000 H   0  0  0  0  0  0  0  0  0  0  0  0
   -5.1489    5.0454    2.5293 H   0  0  0  0  0  0  0  0  0  0  0  0
   -7.5110    3.2535    5.7977 H   0  0  0  0  0  0  0  0  0  0  0  0
   -5.8435    3.1068    6.4784 H   0  0  0  0  0  0  0  0  0  0  0  0
   -6.7613    4.6077    6.6524 H   0  0  0  0  0  0  0  0  0  0  0  0
   -6.2199    1.5213    4.7627 H   0  0  0  0  0  0  0  0  0  0  0  0
   -5.6462    0.1296    2.8511 H   0  0  0  0  0  0  0  0  0  0  0  0
   -3.3275   -0.3099    1.5086 H   0  0  0  0  0  0  0  0  0  0  0  0
   -3.7362   -3.4549   -1.3930 H   0  0  0  0  0  0  0  0  0  0  0  0
    1.2535   -5.2743    0.1744 H   0  0  0  0  0  0  0  0  0  0  0  0
    0.5979   -7.3812   -0.8491 H   0  0  0  0  0  0  0  0  0  0  0  0
   -1.6437   -7.6311   -1.8848 H   0  0  0  0  0  0  0  0  0  0  0  0
   -3.2018   -5.7329   -1.9064 H   0  0  0  0  0  0  0  0  0  0  0  0
    2.8529    0.9634    2.1744 H   0  0  0  0  0  0  0  0  0  0  0  0
    3.8290    3.0752    3.4033 H   0  0  0  0  0  0  0  0  0  0  0  0
    2.6960    5.2094    3.6709 H   0  0  0  0  0  0  0  0  0  0  0  0
    0.7821    6.5793    3.2458 H   0  0  0  0  0  0  0  0  0  0  0  0
    2.3008    7.5298    3.4830 H   0  0  0  0  0  0  0  0  0  0  0  0
    0.9229    8.2280    2.6239 H   0  0  0  0  0  0  0  0  0  0  0  0
    2.8421    5.8352   -0.5896 H   0  0  0  0  0  0  0  0  0  0  0  0
    3.9762    3.6724   -0.8680 H   0  0  0  0  0  0  0  0  0  0  0  0
    6.2142    2.3466   -0.1148 H   0  0  0  0  0  0  0  0  0  0  0  0
    6.0246   -1.2255   -2.3279 H   0  0  0  0  0  0  0  0  0  0  0  0
    7.9355   -1.7175   -3.7469 H   0  0  0  0  0  0  0  0  0  0  0  0
   10.0794   -2.6244   -4.2137 H   0  0  0  0  0  0  0  0  0  0  0  0
   11.4140   -1.6642   -4.8629 H   0  0  0  0  0  0  0  0  0  0  0  0
    9.7598   -1.1080   -5.1435 H   0  0  0  0  0  0  0  0  0  0  0  0
   10.5014    0.4803   -1.0731 H   0  0  0  0  0  0  0  0  0  0  0  0
    8.5696    0.9722    0.3726 H   0  0  0  0  0  0  0  0  0  0  0  0
    5.3876   -1.8673    0.2025 H   0  0  0  0  0  0  0  0  0  0  0  0
    4.3535   -2.4341    3.1262 H   0  0  0  0  0  0  0  0  0  0  0  0
   -0.6574   -4.7270    2.4986 H   0  0  0  0  0  0  0  0  0  0  0  0
   -0.0182   -6.1769    4.3429 H   0  0  0  0  0  0  0  0  0  0  0  0
    2.2218   -5.9681    5.3894 H   0  0  0  0  0  0  0  0  0  0  0  0
    3.7987   -4.2676    4.5801 H   0  0  0  0  0  0  0  0  0  0  0  0
  1  2  2  0  0  0  0
  2  4  1  0  0  0  0
  2  3  1  0  0  0  0
  5 36  1  0  0  0  0
  5  4  1  0  0  0  0
  6  5  2  0  0  0  0
  7  6  1  0  0  0  0
  7 28  2  0  0  0  0
  8  7  1  0  0  0  0
  9  8  2  0  0  0  0
  9 18  1  0  0  0  0
 10  9  1  0  0  0  0
 11 72  1  0  0  0  0
 11 10  2  0  0  0  0
 12 11  1  0  0  0  0
 13 12  2  0  0  0  0
 13 16  1  0  0  0  0
 14 13  1  0  0  0  0
 15 75  1  0  0  0  0
 15 14  1  0  0  0  0
 16 17  2  0  0  0  0
 17 78  1  0  0  0  0
 17 10  1  0  0  0  0
 18 19  2  0  0  0  0
 19 28  1  0  0  0  0
 19 20  1  0  0  0  0
 20 27  1  0  0  0  0
 21 20  2  0  0  0  0
 21 22  1  0  0  0  0
 22 23  2  0  0  0  0
 23 26  1  0  0  0  0
 23 24  1  0  0  0  0
 24 25  1  0  0  0  0
 25 83  1  0  0  0  0
 25 84  1  0  0  0  0
 26 85  1  0  0  0  0
 27 86  1  0  0  0  0
 27 26  2  0  0  0  0
 28 87  1  0  0  0  0
 29 30  2  0  0  0  0
 29  6  1  0  0  0  0
 30 31  1  0  0  0  0
 31 36  2  0  0  0  0
 32 31  1  0  0  0  0
 32 89  1  0  0  0  0
 33 32  2  0  0  0  0
 34 33  1  0  0  0  0
 35 34  2  0  0  0  0
 35 30  1  0  0  0  0
 36 37  1  0  0  0  0
 37 65  1  0  0  0  0
 38 37  2  0  0  0  0
 38 40  1  0  0  0  0
 39  2  1  0  0  0  0
 39 38  1  0  0  0  0
 40 63  2  0  0  0  0
 41 42  1  0  0  0  0
 41 40  1  0  0  0  0
 42 93  1  0  0  0  0
 43 44  1  0  0  0  0
 43 42  2  0  0  0  0
 44 45  2  0  0  0  0
 45 46  1  0  0  0  0
 45 94  1  0  0  0  0
 46 95  1  0  0  0  0
 47 46  2  0  0  0  0
 48 47  1  0  0  0  0
 48 49  1  0  0  0  0
 49 96  1  0  0  0  0
 49 97  1  0  0  0  0
 50 47  1  0  0  0  0
 51 50  2  0  0  0  0
 51 44  1  0  0  0  0
 52 43  1  0  0  0  0
 53 52  2  0  0  0  0
 53 62  1  0  0  0  0
 54 61  1  0  0  0  0
 54 53  1  0  0  0  0
 55 54  2  0  0  0  0
 56 57  2  0  0  0  0
 56 55  1  0  0  0  0
 57 60  1  0  0  0  0
 58 57  1  0  0  0  0
 59104  1  0  0  0  0
 59 58  1  0  0  0  0
 60107  1  0  0  0  0
 60 61  2  0  0  0  0
 61108  1  0  0  0  0
 62 41  2  0  0  0  0
 63 64  1  0  0  0  0
 63110  1  0  0  0  0
 64 69  2  0  0  0  0
 65 66  2  0  0  0  0
 65 64  1  0  0  0  0
 66 67  1  0  0  0  0
 67112  1  0  0  0  0
 67 68  2  0  0  0  0
 68113  1  0  0  0  0
 69 68  1  0  0  0  0
 69114  1  0  0  0  0
 70  3  1  0  0  0  0
 71  8  1  0  0  0  0
 73 12  1  0  0  0  0
 74 15  1  0  0  0  0
 76 15  1  0  0  0  0
 77 16  1  0  0  0  0
 79 18  1  0  0  0  0
 80 21  1  0  0  0  0
 81 22  1  0  0  0  0
 82 25  1  0  0  0  0
 88 29  1  0  0  0  0
 90 33  1  0  0  0  0
 91 34  1  0  0  0  0
 92 35  1  0  0  0  0
 98 49  1  0  0  0  0
 99 50  1  0  0  0  0
100 51  1  0  0  0  0
101 52  1  0  0  0  0
102 55  1  0  0  0  0
103 56  1  0  0  0  0
105 59  1  0  0  0  0
106 59  1  0  0  0  0
109 62  1  0  0  0  0
111 66  1  0  0  0  0
M  END
$$$$
