O=P1(O)OC2=C(C3=CC=C(C)C=C3)C=C4C(C=CC=C4)=C2C5=C(O1)C(C6=CC=C(C)C=C6)=CC7=C5C=CC=C7
 OpenBabel09032010373D

 64 70  0  0  0  0  0  0  0  0999 V2000
    0.6249   -2.6507   -1.3989 O   0  0  0  0  0  0  0  0  0  0  0  0
    0.0309   -1.7384   -0.3717 P   0  0  0  0  0  0  0  0  0  0  0  0
   -0.7784   -2.5564    0.7531 O   0  0  0  0  0  0  0  0  0  0  0  0
   -1.0678   -0.7088   -0.9430 O   0  0  0  0  0  0  0  0  0  0  0  0
   -1.5419    0.2856   -0.1158 C   0  0  0  0  0  0  0  0  0  0  0  0
   -2.8896    0.1879    0.2766 C   0  0  0  0  0  0  0  0  0  0  0  0
   -3.7421   -0.9481   -0.1141 C   0  0  0  0  0  0  0  0  0  0  0  0
   -4.0420   -1.2028   -1.4602 C   0  0  0  0  0  0  0  0  0  0  0  0
   -4.8368   -2.2928   -1.8267 C   0  0  0  0  0  0  0  0  0  0  0  0
   -5.3442   -3.1598   -0.8540 C   0  0  0  0  0  0  0  0  0  0  0  0
   -6.2262   -4.3084   -1.2448 C   0  0  0  0  0  0  0  0  0  0  0  0
   -5.0653   -2.9048    0.4922 C   0  0  0  0  0  0  0  0  0  0  0  0
   -4.2695   -1.8146    0.8562 C   0  0  0  0  0  0  0  0  0  0  0  0
   -3.4070    1.2060    1.0789 C   0  0  0  0  0  0  0  0  0  0  0  0
   -2.6105    2.2686    1.5160 C   0  0  0  0  0  0  0  0  0  0  0  0
   -1.2459    2.3470    1.1269 C   0  0  0  0  0  0  0  0  0  0  0  0
   -0.4909    3.3982    1.7075 C   0  0  0  0  0  0  0  0  0  0  0  0
   -1.0571    4.3532    2.5564 C   0  0  0  0  0  0  0  0  0  0  0  0
   -2.4032    4.2807    2.8743 C   0  0  0  0  0  0  0  0  0  0  0  0
   -3.1721    3.2395    2.3629 C   0  0  0  0  0  0  0  0  0  0  0  0
   -0.6866    1.3591    0.2361 C   0  0  0  0  0  0  0  0  0  0  0  0
    0.6645    1.4147   -0.2870 C   0  0  0  0  0  0  0  0  0  0  0  0
    1.5369    0.3095   -0.1156 C   0  0  0  0  0  0  0  0  0  0  0  0
    1.0594   -0.8377    0.4809 O   0  0  0  0  0  0  0  0  0  0  0  0
    2.8996    0.3314   -0.4554 C   0  0  0  0  0  0  0  0  0  0  0  0
    3.7945   -0.8014   -0.1912 C   0  0  0  0  0  0  0  0  0  0  0  0
    3.8875   -1.8723   -1.0897 C   0  0  0  0  0  0  0  0  0  0  0  0
    4.7450   -2.9466   -0.8360 C   0  0  0  0  0  0  0  0  0  0  0  0
    5.5386   -2.9646    0.3157 C   0  0  0  0  0  0  0  0  0  0  0  0
    6.4301   -4.1350    0.6058 C   0  0  0  0  0  0  0  0  0  0  0  0
    5.4413   -1.9042    1.2226 C   0  0  0  0  0  0  0  0  0  0  0  0
    4.5819   -0.8318    0.9685 C   0  0  0  0  0  0  0  0  0  0  0  0
    3.4090    1.4867   -1.0497 C   0  0  0  0  0  0  0  0  0  0  0  0
    2.5897    2.5834   -1.3308 C   0  0  0  0  0  0  0  0  0  0  0  0
    1.2146    2.5569   -0.9749 C   0  0  0  0  0  0  0  0  0  0  0  0
    0.4411    3.6745   -1.3805 C   0  0  0  0  0  0  0  0  0  0  0  0
    0.9976    4.7770   -2.0348 C   0  0  0  0  0  0  0  0  0  0  0  0
    2.3518    4.7943   -2.3258 C   0  0  0  0  0  0  0  0  0  0  0  0
    3.1405    3.7004   -1.9817 C   0  0  0  0  0  0  0  0  0  0  0  0
   -1.3252   -3.2475    0.3370 H   0  0  0  0  0  0  0  0  0  0  0  0
   -3.6540   -0.5474   -2.2382 H   0  0  0  0  0  0  0  0  0  0  0  0
   -5.0543   -2.4573   -2.8797 H   0  0  0  0  0  0  0  0  0  0  0  0
   -7.2721   -3.9871   -1.2646 H   0  0  0  0  0  0  0  0  0  0  0  0
   -5.9541   -4.6907   -2.2342 H   0  0  0  0  0  0  0  0  0  0  0  0
   -6.1237   -5.1378   -0.5371 H   0  0  0  0  0  0  0  0  0  0  0  0
   -5.4645   -3.5532    1.2692 H   0  0  0  0  0  0  0  0  0  0  0  0
   -4.0528   -1.6486    1.9101 H   0  0  0  0  0  0  0  0  0  0  0  0
   -4.4518    1.1540    1.3842 H   0  0  0  0  0  0  0  0  0  0  0  0
    0.5770    3.4831    1.5141 H   0  0  0  0  0  0  0  0  0  0  0  0
   -0.4376    5.1449    2.9693 H   0  0  0  0  0  0  0  0  0  0  0  0
   -2.8518    5.0185    3.5336 H   0  0  0  0  0  0  0  0  0  0  0  0
   -4.2216    3.1834    2.6468 H   0  0  0  0  0  0  0  0  0  0  0  0
    3.2791   -1.8850   -1.9924 H   0  0  0  0  0  0  0  0  0  0  0  0
    4.7817   -3.7709   -1.5446 H   0  0  0  0  0  0  0  0  0  0  0  0
    6.7987   -4.5846   -0.3222 H   0  0  0  0  0  0  0  0  0  0  0  0
    5.8804   -4.8928    1.1724 H   0  0  0  0  0  0  0  0  0  0  0  0
    7.3056   -3.8248    1.1859 H   0  0  0  0  0  0  0  0  0  0  0  0
    6.0303   -1.9055    2.1366 H   0  0  0  0  0  0  0  0  0  0  0  0
    4.5202   -0.0193    1.6894 H   0  0  0  0  0  0  0  0  0  0  0  0
    4.4646    1.5137   -1.3197 H   0  0  0  0  0  0  0  0  0  0  0  0
   -0.6322    3.6972   -1.1997 H   0  0  0  0  0  0  0  0  0  0  0  0
    0.3650    5.6139   -2.3184 H   0  0  0  0  0  0  0  0  0  0  0  0
    2.7930    5.6469   -2.8347 H   0  0  0  0  0  0  0  0  0  0  0  0
    4.1977    3.7215   -2.2408 H   0  0  0  0  0  0  0  0  0  0  0  0
  1  2  2  0  0  0  0
  2 24  1  0  0  0  0
  2  3  1  0  0  0  0
  4  2  1  0  0  0  0
  4  5  1  0  0  0  0
  5 21  2  0  0  0  0
  5  6  1  0  0  0  0
  6 14  2  0  0  0  0
  7  6  1  0  0  0  0
  7 13  2  0  0  0  0
  8  7  1  0  0  0  0
  9  8  2  0  0  0  0
  9 10  1  0  0  0  0
 10 12  2  0  0  0  0
 11 10  1  0  0  0  0
 11 45  1  0  0  0  0
 12 13  1  0  0  0  0
 12 46  1  0  0  0  0
 13 47  1  0  0  0  0
 14 48  1  0  0  0  0
 14 15  1  0  0  0  0
 15 20  1  0  0  0  0
 16 15  2  0  0  0  0
 16 17  1  0  0  0  0
 17 18  2  0  0  0  0
 18 19  1  0  0  0  0
 18 50  1  0  0  0  0
 19 51  1  0  0  0  0
 20 52  1  0  0  0  0
 20 19  2  0  0  0  0
 21 16  1  0  0  0  0
 22 23  2  0  0  0  0
 22 21  1  0  0  0  0
 23 24  1  0  0  0  0
 25 26  1  0  0  0  0
 25 23  1  0  0  0  0
 26 32  2  0  0  0  0
 27 28  2  0  0  0  0
 27 26  1  0  0  0  0
 28 29  1  0  0  0  0
 29 30  1  0  0  0  0
 29 31  2  0  0  0  0
 30 56  1  0  0  0  0
 30 57  1  0  0  0  0
 31 58  1  0  0  0  0
 32 31  1  0  0  0  0
 32 59  1  0  0  0  0
 33 25  2  0  0  0  0
 34 33  1  0  0  0  0
 34 35  1  0  0  0  0
 35 22  1  0  0  0  0
 36 61  1  0  0  0  0
 36 35  2  0  0  0  0
 37 36  1  0  0  0  0
 38 37  2  0  0  0  0
 38 39  1  0  0  0  0
 39 34  2  0  0  0  0
 40  3  1  0  0  0  0
 41  8  1  0  0  0  0
 42  9  1  0  0  0  0
 43 11  1  0  0  0  0
 44 11  1  0  0  0  0
 49 17  1  0  0  0  0
 53 27  1  0  0  0  0
 54 28  1  0  0  0  0
 55 30  1  0  0  0  0
 60 33  1  0  0  0  0
 62 37  1  0  0  0  0
 63 38  1  0  0  0  0
 64 39  1  0  0  0  0
M  END
$$$$
