O=P1(O)OC2=C(C3=CC=C(S(F)(F)(F)(F)F)C=C3)C=C4C(C=CC=C4)=C2C5=C(O1)C(C6=CC=C(S(F)(F)(F)(F)F)C=C6)=CC7=C5C=CC=C7
 OpenBabel09032010373D

 68 66  0  0  0  0  0  0  0  0999 V2000
   -0.7133   -2.9175   -0.6644 O   0  0  0  0  0  0  0  0  0  0  0  0
   -0.2005   -1.5945   -1.1455 P   0  0  0  0  0  0  0  0  0  0  0  0
    0.2230   -1.7637   -2.7582 O   0  0  0  0  0  0  0  0  0  0  0  0
   -1.4227   -0.3484   -1.0344 O   0  0  0  0  0  0  0  0  0  0  0  0
   -1.6272    0.3669    0.1360 C   0  0  0  0  0  0  0  0  0  0  0  0
   -2.8724    0.5229    0.6546 C   0  0  0  0  0  0  0  0  0  0  0  0
   -4.0028   -0.0488   -0.0750 C   0  0  0  0  0  0  0  0  0  0  0  0
   -4.9740   -0.7625    0.5968 C   0  0  0  0  0  0  0  0  0  0  0  0
   -6.0758   -1.3241   -0.0702 C   0  0  0  0  0  0  0  0  0  0  0  0
   -6.2419   -1.1960   -1.3889 C   0  0  0  0  0  0  0  0  0  0  0  0
   -7.8818   -1.8645   -2.3503 S   0  0  0  0  0  0  0  0  0  0  0  0
   -9.6629   -2.3672   -1.2441 F   0  0  0  0  0  0  0  0  0  0  0  0
   -6.6799   -3.8234   -3.0973 F   0  0  0  0  0  0  0  0  0  0  0  0
   -8.0035   -2.3414   -4.4601 F   0  0  0  0  0  0  0  0  0  0  0  0
   -8.9533   -0.7973   -2.8811 F   0  0  0  0  0  0  0  0  0  0  0  0
   -8.2929   -4.2316   -1.3972 F   0  0  0  0  0  0  0  0  0  0  0  0
   -5.2600   -0.4813   -2.0432 C   0  0  0  0  0  0  0  0  0  0  0  0
   -4.1495    0.0948   -1.4277 C   0  0  0  0  0  0  0  0  0  0  0  0
   -3.0819    1.2058    1.8457 C   0  0  0  0  0  0  0  0  0  0  0  0
   -2.0187    1.7455    2.5517 C   0  0  0  0  0  0  0  0  0  0  0  0
   -0.6866    1.6180    2.0599 C   0  0  0  0  0  0  0  0  0  0  0  0
    0.4039    1.9579    2.8230 C   0  0  0  0  0  0  0  0  0  0  0  0
    0.1942    2.4642    4.0888 C   0  0  0  0  0  0  0  0  0  0  0  0
   -1.0862    2.6202    4.5804 C   0  0  0  0  0  0  0  0  0  0  0  0
   -2.1830    2.2607    3.8159 C   0  0  0  0  0  0  0  0  0  0  0  0
   -0.5818    0.9556    0.8870 C   0  0  0  0  0  0  0  0  0  0  0  0
    0.7909    1.1702    0.3396 C   0  0  0  0  0  0  0  0  0  0  0  0
    1.6596    0.1165   -0.0169 C   0  0  0  0  0  0  0  0  0  0  0  0
    1.2274   -1.1971   -0.2045 O   0  0  0  0  0  0  0  0  0  0  0  0
    2.9636    0.4398   -0.2037 C   0  0  0  0  0  0  0  0  0  0  0  0
    3.9198   -0.6028   -0.5628 C   0  0  0  0  0  0  0  0  0  0  0  0
    3.9411   -1.8191    0.0707 C   0  0  0  0  0  0  0  0  0  0  0  0
    4.8679   -2.8138   -0.2873 C   0  0  0  0  0  0  0  0  0  0  0  0
    5.7677   -2.6263   -1.2562 C   0  0  0  0  0  0  0  0  0  0  0  0
    6.9799   -4.0986   -1.8300 S   0  0  0  0  0  0  0  0  0  0  0  0
    7.9038   -5.1728    0.2797 F   0  0  0  0  0  0  0  0  0  0  0  0
    6.6000   -6.1515   -1.3728 F   0  0  0  0  0  0  0  0  0  0  0  0
    8.8767   -3.8088   -2.9225 F   0  0  0  0  0  0  0  0  0  0  0  0
    6.7060   -4.7789   -3.3054 F   0  0  0  0  0  0  0  0  0  0  0  0
    8.8200   -3.1625   -0.6042 F   0  0  0  0  0  0  0  0  0  0  0  0
    5.7313   -1.4018   -1.8768 C   0  0  0  0  0  0  0  0  0  0  0  0
    4.8285   -0.3661   -1.5644 C   0  0  0  0  0  0  0  0  0  0  0  0
    3.3914    1.7674   -0.0534 C   0  0  0  0  0  0  0  0  0  0  0  0
    2.4907    2.7665    0.2779 C   0  0  0  0  0  0  0  0  0  0  0  0
    1.1133    2.4748    0.4853 C   0  0  0  0  0  0  0  0  0  0  0  0
    0.1685    3.4609    0.6165 C   0  0  0  0  0  0  0  0  0  0  0  0
    0.5602    4.7907    0.5776 C   0  0  0  0  0  0  0  0  0  0  0  0
    1.9122    5.0949    0.3987 C   0  0  0  0  0  0  0  0  0  0  0  0
    2.8410    4.0942    0.2520 C   0  0  0  0  0  0  0  0  0  0  0  0
   -0.5613   -1.5542   -3.3275 H   0  0  0  0  0  0  0  0  0  0  0  0
   -4.9609   -0.9391    1.6523 H   0  0  0  0  0  0  0  0  0  0  0  0
   -6.8036   -1.8694    0.4932 H   0  0  0  0  0  0  0  0  0  0  0  0
   -5.4522   -0.4196   -3.1273 H   0  0  0  0  0  0  0  0  0  0  0  0
   -3.4607    0.6211   -2.0119 H   0  0  0  0  0  0  0  0  0  0  0  0
   -4.0863    1.3045    2.2044 H   0  0  0  0  0  0  0  0  0  0  0  0
    1.4446    1.7798    2.6440 H   0  0  0  0  0  0  0  0  0  0  0  0
    1.0152    2.7487    4.7117 H   0  0  0  0  0  0  0  0  0  0  0  0
   -1.2566    3.0339    5.5662 H   0  0  0  0  0  0  0  0  0  0  0  0
   -3.1892    2.3812    4.2054 H   0  0  0  0  0  0  0  0  0  0  0  0
    3.2716   -2.0920    0.8643 H   0  0  0  0  0  0  0  0  0  0  0  0
    4.8469   -3.7463    0.2343 H   0  0  0  0  0  0  0  0  0  0  0  0
    6.4961   -1.3080   -2.6550 H   0  0  0  0  0  0  0  0  0  0  0  0
    4.9162    0.5235   -2.1277 H   0  0  0  0  0  0  0  0  0  0  0  0
    4.4254    1.9761   -0.2024 H   0  0  0  0  0  0  0  0  0  0  0  0
   -0.9006    3.3874    0.6254 H   0  0  0  0  0  0  0  0  0  0  0  0
   -0.1212    5.6010    0.6819 H   0  0  0  0  0  0  0  0  0  0  0  0
    2.2368    6.1264    0.3838 H   0  0  0  0  0  0  0  0  0  0  0  0
    3.9102    4.3189    0.1070 H   0  0  0  0  0  0  0  0  0  0  0  0
  2  4  1  0  0  0  0
  2  1  2  0  0  0  0
  2 29  1  0  0  0  0
  3  2  1  0  0  0  0
  4  5  1  0  0  0  0
  5  6  2  0  0  0  0
  5 26  1  0  0  0  0
  6 19  1  0  0  0  0
  7  8  2  0  0  0  0
  7  6  1  0  0  0  0
  8 51  1  0  0  0  0
  9 52  1  0  0  0  0
  9  8  1  0  0  0  0
 10  9  2  0  0  0  0
 11 10  1  0  0  0  0
 15 11  1  0  0  0  0
 17 18  2  0  0  0  0
 17 10  1  0  0  0  0
 18  7  1  0  0  0  0
 19 55  1  0  0  0  0
 19 20  2  0  0  0  0
 20 25  1  0  0  0  0
 21 20  1  0  0  0  0
 21 22  1  0  0  0  0
 22 23  2  0  0  0  0
 23 24  1  0  0  0  0
 23 57  1  0  0  0  0
 24 58  1  0  0  0  0
 25 59  1  0  0  0  0
 25 24  2  0  0  0  0
 26 21  2  0  0  0  0
 27 45  1  0  0  0  0
 27 26  1  0  0  0  0
 28 27  2  0  0  0  0
 29 28  1  0  0  0  0
 30 43  2  0  0  0  0
 30 28  1  0  0  0  0
 31 30  1  0  0  0  0
 31 32  2  0  0  0  0
 32 60  1  0  0  0  0
 33 32  1  0  0  0  0
 33 61  1  0  0  0  0
 34 33  2  0  0  0  0
 35 34  1  0  0  0  0
 39 35  1  0  0  0  0
 41 42  2  0  0  0  0
 41 34  1  0  0  0  0
 42 31  1  0  0  0  0
 43 44  1  0  0  0  0
 44 45  1  0  0  0  0
 45 46  2  0  0  0  0
 46 65  1  0  0  0  0
 47 46  1  0  0  0  0
 47 66  1  0  0  0  0
 48 47  2  0  0  0  0
 49 44  2  0  0  0  0
 49 48  1  0  0  0  0
 50  3  1  0  0  0  0
 53 17  1  0  0  0  0
 54 18  1  0  0  0  0
 56 22  1  0  0  0  0
 62 41  1  0  0  0  0
 63 42  1  0  0  0  0
 64 43  1  0  0  0  0
 67 48  1  0  0  0  0
 68 49  1  0  0  0  0
M  RAD  8  12   2  13   2  14   2  16   2  36   2  37   2  38   2  40   2
M  END
$$$$
