O=P1(O)OC2=C(C3=C(C=CC=C4)C4=CC5=C3C=CC=C5)C=C6C(C=CC=C6)=C2C7=C(O1)[C@@]([C@@]8=C(C=CC=C9)C9=CC%10=C8C=CC=C%10)=CC%11=C7C=CC=C%11
 OpenBabel09032010383D

 82 92  0  0  0  0  0  0  0  0999 V2000
   -0.6122    2.7599    0.1166 O   0  0  0  0  0  0  0  0  0  0  0  0
   -0.1013    1.4373    0.5909 P   0  0  0  0  0  0  0  0  0  0  0  0
    0.5028    1.5396    2.0767 O   0  0  0  0  0  0  0  0  0  0  0  0
    1.1187    0.8383   -0.2726 O   0  0  0  0  0  0  0  0  0  0  0  0
    1.5497   -0.4484   -0.0456 C   0  0  0  0  0  0  0  0  0  0  0  0
    2.8726   -0.5903    0.4151 C   0  0  0  0  0  0  0  0  0  0  0  0
    3.7514    0.5781    0.6727 C   0  0  0  0  0  0  0  0  0  0  0  0
    4.4492    1.1980   -0.4148 C   0  0  0  0  0  0  0  0  0  0  0  0
    4.3631    0.7627   -1.7616 C   0  0  0  0  0  0  0  0  0  0  0  0
    5.0606    1.3964   -2.7927 C   0  0  0  0  0  0  0  0  0  0  0  0
    5.8696    2.4862   -2.5094 C   0  0  0  0  0  0  0  0  0  0  0  0
    5.9787    2.9389   -1.1966 C   0  0  0  0  0  0  0  0  0  0  0  0
    5.2812    2.3094   -0.1505 C   0  0  0  0  0  0  0  0  0  0  0  0
    5.4126    2.7855    1.1591 C   0  0  0  0  0  0  0  0  0  0  0  0
    4.7416    2.1902    2.2333 C   0  0  0  0  0  0  0  0  0  0  0  0
    3.9039    1.0752    2.0080 C   0  0  0  0  0  0  0  0  0  0  0  0
    3.2537    0.5196    3.1388 C   0  0  0  0  0  0  0  0  0  0  0  0
    3.4173    1.0431    4.4230 C   0  0  0  0  0  0  0  0  0  0  0  0
    4.2444    2.1378    4.6194 C   0  0  0  0  0  0  0  0  0  0  0  0
    4.9025    2.7062    3.5312 C   0  0  0  0  0  0  0  0  0  0  0  0
    3.3657   -1.8799    0.6199 C   0  0  0  0  0  0  0  0  0  0  0  0
    2.5618   -3.0025    0.4164 C   0  0  0  0  0  0  0  0  0  0  0  0
    1.2304   -2.8518   -0.0573 C   0  0  0  0  0  0  0  0  0  0  0  0
    0.4615   -4.0408   -0.1431 C   0  0  0  0  0  0  0  0  0  0  0  0
    0.9861   -5.3016    0.1549 C   0  0  0  0  0  0  0  0  0  0  0  0
    2.3029   -5.4187    0.5687 C   0  0  0  0  0  0  0  0  0  0  0  0
    3.0835   -4.2748    0.7035 C   0  0  0  0  0  0  0  0  0  0  0  0
    0.7108   -1.5422   -0.3722 C   0  0  0  0  0  0  0  0  0  0  0  0
   -0.5768   -1.3199   -1.0033 C   0  0  0  0  0  0  0  0  0  0  0  0
   -1.5204   -0.4443   -0.4121 C   0  0  0  0  0  0  0  0  0  0  0  0
   -1.1764    0.2474    0.7254 O   0  0  0  0  0  0  0  0  0  0  0  0
   -2.8433   -0.3014   -0.8663 C   0  0  0  0  0  0  0  0  0  0  0  0
   -3.8334    0.5586   -0.1722 C   0  0  0  0  0  0  0  0  0  0  0  0
   -4.5473    0.0495    0.9621 C   0  0  0  0  0  0  0  0  0  0  0  0
   -4.3606   -1.2503    1.4980 C   0  0  0  0  0  0  0  0  0  0  0  0
   -5.0775   -1.7068    2.6067 C   0  0  0  0  0  0  0  0  0  0  0  0
   -6.0071   -0.8775    3.2156 C   0  0  0  0  0  0  0  0  0  0  0  0
   -6.2172    0.4046    2.7135 C   0  0  0  0  0  0  0  0  0  0  0  0
   -5.5021    0.8748    1.5977 C   0  0  0  0  0  0  0  0  0  0  0  0
   -5.7394    2.1660    1.1124 C   0  0  0  0  0  0  0  0  0  0  0  0
   -5.0533    2.6784    0.0053 C   0  0  0  0  0  0  0  0  0  0  0  0
   -4.0875    1.8842   -0.6525 C   0  0  0  0  0  0  0  0  0  0  0  0
   -3.4204    2.4660   -1.7598 C   0  0  0  0  0  0  0  0  0  0  0  0
   -3.6968    3.7638   -2.1956 C   0  0  0  0  0  0  0  0  0  0  0  0
   -4.6536    4.5220   -1.5387 C   0  0  0  0  0  0  0  0  0  0  0  0
   -5.3264    3.9822   -0.4450 C   0  0  0  0  0  0  0  0  0  0  0  0
   -3.2296   -1.0147   -2.0031 C   0  0  0  0  0  0  0  0  0  0  0  0
   -2.3245   -1.8203   -2.6972 C   0  0  0  0  0  0  0  0  0  0  0  0
   -0.9930   -1.9680   -2.2242 C   0  0  0  0  0  0  0  0  0  0  0  0
   -0.1213   -2.7315   -3.0426 C   0  0  0  0  0  0  0  0  0  0  0  0
   -0.5469   -3.3625   -4.2151 C   0  0  0  0  0  0  0  0  0  0  0  0
   -1.8644   -3.2377   -4.6245 C   0  0  0  0  0  0  0  0  0  0  0  0
   -2.7453   -2.4660   -3.8724 C   0  0  0  0  0  0  0  0  0  0  0  0
    1.0316    2.3520    2.1782 H   0  0  0  0  0  0  0  0  0  0  0  0
    3.7392   -0.0876   -2.0291 H   0  0  0  0  0  0  0  0  0  0  0  0
    4.9665    1.0352   -3.8134 H   0  0  0  0  0  0  0  0  0  0  0  0
    6.4149    2.9843   -3.3063 H   0  0  0  0  0  0  0  0  0  0  0  0
    6.6193    3.7951   -0.9946 H   0  0  0  0  0  0  0  0  0  0  0  0
    6.0577    3.6430    1.3474 H   0  0  0  0  0  0  0  0  0  0  0  0
    2.5816   -0.3304    3.0294 H   0  0  0  0  0  0  0  0  0  0  0  0
    2.8918    0.5932    5.2616 H   0  0  0  0  0  0  0  0  0  0  0  0
    4.3793    2.5497    5.6159 H   0  0  0  0  0  0  0  0  0  0  0  0
    5.5492    3.5640    3.7060 H   0  0  0  0  0  0  0  0  0  0  0  0
    4.3896   -1.9994    0.9737 H   0  0  0  0  0  0  0  0  0  0  0  0
   -0.5861   -3.9993   -0.4358 H   0  0  0  0  0  0  0  0  0  0  0  0
    0.3579   -6.1841    0.0673 H   0  0  0  0  0  0  0  0  0  0  0  0
    2.7197   -6.3933    0.8050 H   0  0  0  0  0  0  0  0  0  0  0  0
    4.1085   -4.3855    1.0537 H   0  0  0  0  0  0  0  0  0  0  0  0
   -3.6388   -1.9322    1.0534 H   0  0  0  0  0  0  0  0  0  0  0  0
   -4.9032   -2.7085    2.9903 H   0  0  0  0  0  0  0  0  0  0  0  0
   -6.5677   -1.2246    4.0791 H   0  0  0  0  0  0  0  0  0  0  0  0
   -6.9507    1.0411    3.2043 H   0  0  0  0  0  0  0  0  0  0  0  0
   -6.4784    2.7912    1.6116 H   0  0  0  0  0  0  0  0  0  0  0  0
   -2.6482    1.9155   -2.2928 H   0  0  0  0  0  0  0  0  0  0  0  0
   -3.1510    4.1786   -3.0386 H   0  0  0  0  0  0  0  0  0  0  0  0
   -4.8703    5.5339   -1.8688 H   0  0  0  0  0  0  0  0  0  0  0  0
   -6.0685    4.5954    0.0620 H   0  0  0  0  0  0  0  0  0  0  0  0
   -4.2537   -0.9114   -2.3619 H   0  0  0  0  0  0  0  0  0  0  0  0
    0.9295   -2.8372   -2.7793 H   0  0  0  0  0  0  0  0  0  0  0  0
    0.1579   -3.9437   -4.8041 H   0  0  0  0  0  0  0  0  0  0  0  0
   -2.2051   -3.7231   -5.5348 H   0  0  0  0  0  0  0  0  0  0  0  0
   -3.7707   -2.3598   -4.2230 H   0  0  0  0  0  0  0  0  0  0  0  0
  1  2  2  0  0  0  0
  2 31  1  0  0  0  0
  2  3  1  0  0  0  0
  3 54  1  0  0  0  0
  4  5  1  0  0  0  0
  4  2  1  0  0  0  0
  5  6  2  0  0  0  0
  6 21  1  0  0  0  0
  6  7  1  0  0  0  0
  7 16  2  0  0  0  0
  8 13  1  0  0  0  0
  8  7  1  0  0  0  0
  9  8  2  0  0  0  0
 10 11  2  0  0  0  0
 10  9  1  0  0  0  0
 11 12  1  0  0  0  0
 12 58  1  0  0  0  0
 12 13  2  0  0  0  0
 13 14  1  0  0  0  0
 14 59  1  0  0  0  0
 14 15  2  0  0  0  0
 15 20  1  0  0  0  0
 16 15  1  0  0  0  0
 16 17  1  0  0  0  0
 17 18  2  0  0  0  0
 18 19  1  0  0  0  0
 18 61  1  0  0  0  0
 19 62  1  0  0  0  0
 20 63  1  0  0  0  0
 20 19  2  0  0  0  0
 21 64  1  0  0  0  0
 22 21  2  0  0  0  0
 22 27  1  0  0  0  0
 23 22  1  0  0  0  0
 24 23  1  0  0  0  0
 24 25  2  0  0  0  0
 25 26  1  0  0  0  0
 26 27  2  0  0  0  0
 26 67  1  0  0  0  0
 27 68  1  0  0  0  0
 28 23  2  0  0  0  0
 28  5  1  0  0  0  0
 29 30  2  0  0  0  0
 29 28  1  0  0  0  0
 30 31  1  0  0  0  0
 32 30  1  0  0  0  0
 32 33  1  0  0  0  0
 33 34  1  0  0  0  0
 34 35  2  0  0  0  0
 34 39  1  0  0  0  0
 35 36  1  0  0  0  0
 36 70  1  0  0  0  0
 36 37  2  0  0  0  0
 37 71  1  0  0  0  0
 38 72  1  0  0  0  0
 38 37  1  0  0  0  0
 39 38  2  0  0  0  0
 40 39  1  0  0  0  0
 40 73  1  0  0  0  0
 41 40  2  0  0  0  0
 42 33  2  0  0  0  0
 42 41  1  0  0  0  0
 43 42  1  0  0  0  0
 44 43  2  0  0  0  0
 44 45  1  0  0  0  0
 45 46  2  0  0  0  0
 46 41  1  0  0  0  0
 46 77  1  0  0  0  0
 47 32  2  0  0  0  0
 48 49  1  0  0  0  0
 48 47  1  0  0  0  0
 49 29  1  0  0  0  0
 50 79  1  0  0  0  0
 50 49  2  0  0  0  0
 51 50  1  0  0  0  0
 52 51  2  0  0  0  0
 52 53  1  0  0  0  0
 53 48  2  0  0  0  0
 55  9  1  0  0  0  0
 56 10  1  0  0  0  0
 57 11  1  0  0  0  0
 60 17  1  0  0  0  0
 65 24  1  0  0  0  0
 66 25  1  0  0  0  0
 69 35  1  0  0  0  0
 74 43  1  0  0  0  0
 75 44  1  0  0  0  0
 76 45  1  0  0  0  0
 78 47  1  0  0  0  0
 80 51  1  0  0  0  0
 81 52  1  0  0  0  0
 82 53  1  0  0  0  0
M  END
$$$$
