O=P1(O)OC2=C([Si](C3=CC=CC=C3)(C4=CC=CC=C4)C5=CC=CC=C5)C=C6C(C=CC=C6)=C2C7=C(O1)C([Si](C8=CC=CC=C8)(C9=CC=CC=C9)C%10=CC=CC=C%10)=CC%11=C7C=CC=C%11
 OpenBabel09032010383D

104114  0  0  0  0  0  0  0  0999 V2000
   -1.3200    1.4644   -1.9975 O   0  0  0  0  0  0  0  0  0  0  0  0
   -0.4199    1.2434   -0.8194 P   0  0  0  0  0  0  0  0  0  0  0  0
   -0.1381    2.5910    0.0001 O   0  0  0  0  0  0  0  0  0  0  0  0
    1.0467    0.7071   -1.1719 O   0  0  0  0  0  0  0  0  0  0  0  0
    1.6108   -0.4726   -0.7337 C   0  0  0  0  0  0  0  0  0  0  0  0
    3.0204   -0.4018   -0.5513 C   0  0  0  0  0  0  0  0  0  0  0  0
    4.0006    1.2042   -0.6596 Si  0  0  0  0  0  0  0  0  0  0  0  0
    3.2114    2.3612    0.5848 C   0  0  0  0  0  0  0  0  0  0  0  0
    2.9459    3.7110    0.2927 C   0  0  0  0  0  0  0  0  0  0  0  0
    2.3562    4.5538    1.2411 C   0  0  0  0  0  0  0  0  0  0  0  0
    2.0192    4.0683    2.5011 C   0  0  0  0  0  0  0  0  0  0  0  0
    2.2689    2.7377    2.8169 C   0  0  0  0  0  0  0  0  0  0  0  0
    2.8511    1.8913    1.8687 C   0  0  0  0  0  0  0  0  0  0  0  0
    4.0469    1.9038   -2.3809 C   0  0  0  0  0  0  0  0  0  0  0  0
    3.3268    1.3357   -3.4489 C   0  0  0  0  0  0  0  0  0  0  0  0
    3.4031    1.8661   -4.7414 C   0  0  0  0  0  0  0  0  0  0  0  0
    4.2024    2.9747   -4.9979 C   0  0  0  0  0  0  0  0  0  0  0  0
    4.9330    3.5507   -3.9650 C   0  0  0  0  0  0  0  0  0  0  0  0
    4.8626    3.0183   -2.6748 C   0  0  0  0  0  0  0  0  0  0  0  0
    5.7903    0.9049   -0.1737 C   0  0  0  0  0  0  0  0  0  0  0  0
    6.3169    1.3166    1.0651 C   0  0  0  0  0  0  0  0  0  0  0  0
    7.6539    1.0765    1.3987 C   0  0  0  0  0  0  0  0  0  0  0  0
    8.4936    0.4217    0.5032 C   0  0  0  0  0  0  0  0  0  0  0  0
    8.0008    0.0114   -0.7308 C   0  0  0  0  0  0  0  0  0  0  0  0
    6.6667    0.2533   -1.0683 C   0  0  0  0  0  0  0  0  0  0  0  0
    3.6893   -1.5833   -0.2050 C   0  0  0  0  0  0  0  0  0  0  0  0
    3.0100   -2.7767    0.0253 C   0  0  0  0  0  0  0  0  0  0  0  0
    1.6011   -2.8351   -0.1154 C   0  0  0  0  0  0  0  0  0  0  0  0
    1.0075   -4.0645    0.2886 C   0  0  0  0  0  0  0  0  0  0  0  0
    1.7481   -5.1756    0.7054 C   0  0  0  0  0  0  0  0  0  0  0  0
    3.1271   -5.0973    0.7634 C   0  0  0  0  0  0  0  0  0  0  0  0
    3.7519   -3.8998    0.4356 C   0  0  0  0  0  0  0  0  0  0  0  0
    0.8558   -1.6863   -0.5839 C   0  0  0  0  0  0  0  0  0  0  0  0
   -0.5771   -1.8001   -0.8344 C   0  0  0  0  0  0  0  0  0  0  0  0
   -1.4878   -0.9308   -0.1831 C   0  0  0  0  0  0  0  0  0  0  0  0
   -0.9858    0.2439    0.3152 O   0  0  0  0  0  0  0  0  0  0  0  0
   -2.8772   -1.1471   -0.0867 C   0  0  0  0  0  0  0  0  0  0  0  0
   -4.0640   -0.1029    0.9205 Si  0  0  0  0  0  0  0  0  0  0  0  0
   -4.8603   -1.1247    2.2860 C   0  0  0  0  0  0  0  0  0  0  0  0
   -5.6100   -0.4838    3.2977 C   0  0  0  0  0  0  0  0  0  0  0  0
   -6.2175   -1.2088    4.3270 C   0  0  0  0  0  0  0  0  0  0  0  0
   -6.0891   -2.5922    4.3752 C   0  0  0  0  0  0  0  0  0  0  0  0
   -5.3472   -3.2490    3.3985 C   0  0  0  0  0  0  0  0  0  0  0  0
   -4.7355   -2.5245    2.3684 C   0  0  0  0  0  0  0  0  0  0  0  0
   -5.3803    0.5075   -0.2613 C   0  0  0  0  0  0  0  0  0  0  0  0
   -5.0158    1.0691   -1.5038 C   0  0  0  0  0  0  0  0  0  0  0  0
   -5.9791    1.5352   -2.4033 C   0  0  0  0  0  0  0  0  0  0  0  0
   -7.3303    1.4447   -2.0881 C   0  0  0  0  0  0  0  0  0  0  0  0
   -7.7180    0.8871   -0.8742 C   0  0  0  0  0  0  0  0  0  0  0  0
   -6.7554    0.4224    0.0286 C   0  0  0  0  0  0  0  0  0  0  0  0
   -3.2304    1.3323    1.7767 C   0  0  0  0  0  0  0  0  0  0  0  0
   -3.3661    2.6587    1.3275 C   0  0  0  0  0  0  0  0  0  0  0  0
   -2.7286    3.7153    1.9869 C   0  0  0  0  0  0  0  0  0  0  0  0
   -1.9449    3.4730    3.1107 C   0  0  0  0  0  0  0  0  0  0  0  0
   -1.7958    2.1727    3.5789 C   0  0  0  0  0  0  0  0  0  0  0  0
   -2.4304    1.1151    2.9207 C   0  0  0  0  0  0  0  0  0  0  0  0
   -3.3914   -2.2135   -0.8438 C   0  0  0  0  0  0  0  0  0  0  0  0
   -2.5759   -3.0246   -1.6410 C   0  0  0  0  0  0  0  0  0  0  0  0
   -1.1728   -2.8231   -1.6552 C   0  0  0  0  0  0  0  0  0  0  0  0
   -0.4276   -3.6458   -2.5385 C   0  0  0  0  0  0  0  0  0  0  0  0
   -1.0203   -4.6445   -3.3158 C   0  0  0  0  0  0  0  0  0  0  0  0
   -2.3896   -4.8450   -3.2518 C   0  0  0  0  0  0  0  0  0  0  0  0
   -3.1621   -4.0351   -2.4236 C   0  0  0  0  0  0  0  0  0  0  0  0
    0.4146    2.4531    0.7895 H   0  0  0  0  0  0  0  0  0  0  0  0
    3.1740    4.1347   -0.6843 H   0  0  0  0  0  0  0  0  0  0  0  0
    2.1516    5.5912    0.9859 H   0  0  0  0  0  0  0  0  0  0  0  0
    1.5574    4.7269    3.2319 H   0  0  0  0  0  0  0  0  0  0  0  0
    2.0075    2.3554    3.8007 H   0  0  0  0  0  0  0  0  0  0  0  0
    3.0246    0.8522    2.1529 H   0  0  0  0  0  0  0  0  0  0  0  0
    2.6930    0.4624   -3.3043 H   0  0  0  0  0  0  0  0  0  0  0  0
    2.8370    1.4088   -5.5497 H   0  0  0  0  0  0  0  0  0  0  0  0
    4.2569    3.3859   -6.0015 H   0  0  0  0  0  0  0  0  0  0  0  0
    5.5635    4.4138   -4.1602 H   0  0  0  0  0  0  0  0  0  0  0  0
    5.4676    3.4892   -1.8987 H   0  0  0  0  0  0  0  0  0  0  0  0
    5.7034    1.8399    1.7961 H   0  0  0  0  0  0  0  0  0  0  0  0
    8.0385    1.4053    2.3610 H   0  0  0  0  0  0  0  0  0  0  0  0
    9.5315    0.2355    0.7649 H   0  0  0  0  0  0  0  0  0  0  0  0
    8.6541   -0.4952   -1.4365 H   0  0  0  0  0  0  0  0  0  0  0  0
    6.3207   -0.0763   -2.0487 H   0  0  0  0  0  0  0  0  0  0  0  0
    4.7695   -1.5795   -0.0577 H   0  0  0  0  0  0  0  0  0  0  0  0
   -0.0748   -4.1783    0.2998 H   0  0  0  0  0  0  0  0  0  0  0  0
    1.2373   -6.0923    0.9871 H   0  0  0  0  0  0  0  0  0  0  0  0
    3.7154   -5.9516    1.0850 H   0  0  0  0  0  0  0  0  0  0  0  0
    4.8364   -3.8438    0.5214 H   0  0  0  0  0  0  0  0  0  0  0  0
   -5.7326    0.6002    3.2985 H   0  0  0  0  0  0  0  0  0  0  0  0
   -6.7890   -0.6879    5.0908 H   0  0  0  0  0  0  0  0  0  0  0  0
   -6.5626   -3.1571    5.1740 H   0  0  0  0  0  0  0  0  0  0  0  0
   -5.2414   -4.3308    3.4381 H   0  0  0  0  0  0  0  0  0  0  0  0
   -4.1568   -3.0872    1.6395 H   0  0  0  0  0  0  0  0  0  0  0  0
   -3.9673    1.1557   -1.7949 H   0  0  0  0  0  0  0  0  0  0  0  0
   -5.6667    1.9662   -3.3514 H   0  0  0  0  0  0  0  0  0  0  0  0
   -8.0790    1.8042   -2.7883 H   0  0  0  0  0  0  0  0  0  0  0  0
   -8.7733    0.8097   -0.6254 H   0  0  0  0  0  0  0  0  0  0  0  0
   -7.1123   -0.0115    0.9608 H   0  0  0  0  0  0  0  0  0  0  0  0
   -3.9657    2.9009    0.4513 H   0  0  0  0  0  0  0  0  0  0  0  0
   -2.8443    4.7299    1.6137 H   0  0  0  0  0  0  0  0  0  0  0  0
   -1.4557    4.2983    3.6200 H   0  0  0  0  0  0  0  0  0  0  0  0
   -1.1908    1.9765    4.4600 H   0  0  0  0  0  0  0  0  0  0  0  0
   -2.2892    0.1089    3.3166 H   0  0  0  0  0  0  0  0  0  0  0  0
   -4.4680   -2.4002   -0.8479 H   0  0  0  0  0  0  0  0  0  0  0  0
    0.6471   -3.5064   -2.6421 H   0  0  0  0  0  0  0  0  0  0  0  0
   -0.4068   -5.2538   -3.9734 H   0  0  0  0  0  0  0  0  0  0  0  0
   -2.8605   -5.6157   -3.8559 H   0  0  0  0  0  0  0  0  0  0  0  0
   -4.2393   -4.1926   -2.4039 H   0  0  0  0  0  0  0  0  0  0  0  0
  1  2  2  0  0  0  0
  2  3  1  0  0  0  0
  2 36  1  0  0  0  0
  3 64  1  0  0  0  0
  4  2  1  0  0  0  0
  4  5  1  0  0  0  0
  5 33  2  0  0  0  0
  5  6  1  0  0  0  0
  6 26  2  0  0  0  0
  7  6  1  0  0  0  0
  7 20  1  0  0  0  0
  7  8  1  0  0  0  0
  8 13  1  0  0  0  0
  9  8  2  0  0  0  0
  9 10  1  0  0  0  0
 10 11  2  0  0  0  0
 11 12  1  0  0  0  0
 11 67  1  0  0  0  0
 12 68  1  0  0  0  0
 13 69  1  0  0  0  0
 13 12  2  0  0  0  0
 14  7  1  0  0  0  0
 15 70  1  0  0  0  0
 15 14  2  0  0  0  0
 16 15  1  0  0  0  0
 17 16  2  0  0  0  0
 17 18  1  0  0  0  0
 18 19  2  0  0  0  0
 19 14  1  0  0  0  0
 19 74  1  0  0  0  0
 20 21  2  0  0  0  0
 21 22  1  0  0  0  0
 21 75  1  0  0  0  0
 22 76  1  0  0  0  0
 23 77  1  0  0  0  0
 23 22  2  0  0  0  0
 24 23  1  0  0  0  0
 25 24  2  0  0  0  0
 25 20  1  0  0  0  0
 26 80  1  0  0  0  0
 26 27  1  0  0  0  0
 27 32  1  0  0  0  0
 28 27  2  0  0  0  0
 28 29  1  0  0  0  0
 29 81  1  0  0  0  0
 29 30  2  0  0  0  0
 30 31  1  0  0  0  0
 30 82  1  0  0  0  0
 31 83  1  0  0  0  0
 32 84  1  0  0  0  0
 32 31  2  0  0  0  0
 33 28  1  0  0  0  0
 34 33  1  0  0  0  0
 34 35  2  0  0  0  0
 35 37  1  0  0  0  0
 35 36  1  0  0  0  0
 37 38  1  0  0  0  0
 38 51  1  0  0  0  0
 38 39  1  0  0  0  0
 39 44  2  0  0  0  0
 39 40  1  0  0  0  0
 40 85  1  0  0  0  0
 40 41  2  0  0  0  0
 41 42  1  0  0  0  0
 41 86  1  0  0  0  0
 42 87  1  0  0  0  0
 43 88  1  0  0  0  0
 43 42  2  0  0  0  0
 44 43  1  0  0  0  0
 45 50  1  0  0  0  0
 45 38  1  0  0  0  0
 46 45  2  0  0  0  0
 47 48  2  0  0  0  0
 47 46  1  0  0  0  0
 48 49  1  0  0  0  0
 49 93  1  0  0  0  0
 49 50  2  0  0  0  0
 50 94  1  0  0  0  0
 51 56  1  0  0  0  0
 52 51  2  0  0  0  0
 52 53  1  0  0  0  0
 53 54  2  0  0  0  0
 54 55  1  0  0  0  0
 54 97  1  0  0  0  0
 55 98  1  0  0  0  0
 56 99  1  0  0  0  0
 56 55  2  0  0  0  0
 57 37  2  0  0  0  0
 58 57  1  0  0  0  0
 59 58  1  0  0  0  0
 59 34  1  0  0  0  0
 60 59  2  0  0  0  0
 61 62  2  0  0  0  0
 61 60  1  0  0  0  0
 62 63  1  0  0  0  0
 63104  1  0  0  0  0
 63 58  2  0  0  0  0
 65  9  1  0  0  0  0
 66 10  1  0  0  0  0
 71 16  1  0  0  0  0
 72 17  1  0  0  0  0
 73 18  1  0  0  0  0
 78 24  1  0  0  0  0
 79 25  1  0  0  0  0
 89 44  1  0  0  0  0
 90 46  1  0  0  0  0
 91 47  1  0  0  0  0
 92 48  1  0  0  0  0
 95 52  1  0  0  0  0
 96 53  1  0  0  0  0
100 57  1  0  0  0  0
101 60  1  0  0  0  0
102 61  1  0  0  0  0
103 62  1  0  0  0  0
M  END
$$$$
