O=P1(O)OC2=C(C3=C(C=CC=C4)C4=C(C5=CC(C=CC=C6)=C6C=C5)C7=C3C=CC=C7)C=C8C(C=CC=C8)=[C@]2[C@]9=C(O1)C(C%10=C(C=CC=C%11)C%11=C(C%12=CC=C(C=CC=C%13)C%13=C%12)C%14=C%10C=CC=C%14)=CC%15=C9C=CC=C%15
 OpenBabel09032010373D

114128  0  0  0  0  0  0  0  0999 V2000
    0.3122    1.0982   -0.5259 O   0  0  0  0  0  0  0  0  0  0  0  0
   -0.0799   -0.2627   -0.0477 P   0  0  0  0  0  0  0  0  0  0  0  0
   -0.6791   -1.1513   -1.2461 O   0  0  0  0  0  0  0  0  0  0  0  0
   -1.2514   -0.2811    1.0577 O   0  0  0  0  0  0  0  0  0  0  0  0
   -1.5989   -1.4711    1.6557 C   0  0  0  0  0  0  0  0  0  0  0  0
   -2.9152   -1.9198    1.4309 C   0  0  0  0  0  0  0  0  0  0  0  0
   -3.8807   -1.1489    0.6020 C   0  0  0  0  0  0  0  0  0  0  0  0
   -4.0998   -1.5173   -0.7616 C   0  0  0  0  0  0  0  0  0  0  0  0
   -3.4390   -2.6165   -1.3727 C   0  0  0  0  0  0  0  0  0  0  0  0
   -3.6408   -2.9703   -2.7059 C   0  0  0  0  0  0  0  0  0  0  0  0
   -4.5175   -2.2338   -3.4770 C   0  0  0  0  0  0  0  0  0  0  0  0
   -5.1837   -1.1504   -2.9073 C   0  0  0  0  0  0  0  0  0  0  0  0
   -5.0006   -0.7642   -1.5522 C   0  0  0  0  0  0  0  0  0  0  0  0
   -5.6864    0.3483   -0.9751 C   0  0  0  0  0  0  0  0  0  0  0  0
   -6.6226    1.1414   -1.8067 C   0  0  0  0  0  0  0  0  0  0  0  0
   -6.1673    2.2609   -2.5231 C   0  0  0  0  0  0  0  0  0  0  0  0
   -7.0394    3.0220   -3.3187 C   0  0  0  0  0  0  0  0  0  0  0  0
   -6.5859    4.1407   -4.0357 C   0  0  0  0  0  0  0  0  0  0  0  0
   -7.4640    4.8871   -4.8228 C   0  0  0  0  0  0  0  0  0  0  0  0
   -8.8056    4.5255   -4.9035 C   0  0  0  0  0  0  0  0  0  0  0  0
   -9.2718    3.4159   -4.1963 C   0  0  0  0  0  0  0  0  0  0  0  0
   -8.4015    2.6546   -3.3996 C   0  0  0  0  0  0  0  0  0  0  0  0
   -8.8552    1.5374   -2.6824 C   0  0  0  0  0  0  0  0  0  0  0  0
   -7.9762    0.7898   -1.8950 C   0  0  0  0  0  0  0  0  0  0  0  0
   -5.4787    0.7087    0.3913 C   0  0  0  0  0  0  0  0  0  0  0  0
   -4.5768   -0.0420    1.1823 C   0  0  0  0  0  0  0  0  0  0  0  0
   -4.4022    0.3449    2.5387 C   0  0  0  0  0  0  0  0  0  0  0  0
   -5.0728    1.4271    3.1063 C   0  0  0  0  0  0  0  0  0  0  0  0
   -5.9488    2.1615    2.3324 C   0  0  0  0  0  0  0  0  0  0  0  0
   -6.1467    1.8054    0.9993 C   0  0  0  0  0  0  0  0  0  0  0  0
   -3.3196   -3.1108    2.0364 C   0  0  0  0  0  0  0  0  0  0  0  0
   -2.4362   -3.8627    2.8128 C   0  0  0  0  0  0  0  0  0  0  0  0
   -1.1156   -3.3934    3.0498 C   0  0  0  0  0  0  0  0  0  0  0  0
   -0.2638   -4.2644    3.7760 C   0  0  0  0  0  0  0  0  0  0  0  0
   -0.7004   -5.4880    4.2914 C   0  0  0  0  0  0  0  0  0  0  0  0
   -2.0079   -5.8957    4.0826 C   0  0  0  0  0  0  0  0  0  0  0  0
   -2.8681   -5.0898    3.3428 C   0  0  0  0  0  0  0  0  0  0  0  0
   -0.6877   -2.1194    2.5242 C   0  0  0  0  0  0  0  0  0  0  0  0
    0.5718   -1.4869    2.8690 C   0  0  0  0  0  0  0  0  0  0  0  0
    1.4545   -1.0451    1.8532 C   0  0  0  0  0  0  0  0  0  0  0  0
    1.0942   -1.1950    0.5343 O   0  0  0  0  0  0  0  0  0  0  0  0
    2.7439   -0.5426    2.1045 C   0  0  0  0  0  0  0  0  0  0  0  0
    3.6603   -0.1340    1.0086 C   0  0  0  0  0  0  0  0  0  0  0  0
    3.7328    1.2424    0.6283 C   0  0  0  0  0  0  0  0  0  0  0  0
    2.9554    2.2523    1.2576 C   0  0  0  0  0  0  0  0  0  0  0  0
    3.0250    3.5949    0.8891 C   0  0  0  0  0  0  0  0  0  0  0  0
    3.8796    3.9751   -0.1263 C   0  0  0  0  0  0  0  0  0  0  0  0
    4.6522    3.0081   -0.7673 C   0  0  0  0  0  0  0  0  0  0  0  0
    4.6021    1.6316   -0.4182 C   0  0  0  0  0  0  0  0  0  0  0  0
    5.3884    0.6432   -1.0862 C   0  0  0  0  0  0  0  0  0  0  0  0
    6.2731    1.0466   -2.2048 C   0  0  0  0  0  0  0  0  0  0  0  0
    5.7857    1.0823   -3.5183 C   0  0  0  0  0  0  0  0  0  0  0  0
    6.6156    1.4616   -4.5748 C   0  0  0  0  0  0  0  0  0  0  0  0
    7.9541    1.8129   -4.3439 C   0  0  0  0  0  0  0  0  0  0  0  0
    8.8020    2.1946   -5.3962 C   0  0  0  0  0  0  0  0  0  0  0  0
   10.1320    2.5405   -5.1518 C   0  0  0  0  0  0  0  0  0  0  0  0
   10.6302    2.5092   -3.8527 C   0  0  0  0  0  0  0  0  0  0  0  0
    9.8002    2.1327   -2.7954 C   0  0  0  0  0  0  0  0  0  0  0  0
    8.4601    1.7816   -3.0246 C   0  0  0  0  0  0  0  0  0  0  0  0
    7.6126    1.3995   -1.9712 C   0  0  0  0  0  0  0  0  0  0  0  0
    5.3248   -0.7305   -0.6981 C   0  0  0  0  0  0  0  0  0  0  0  0
    4.4619   -1.1199    0.3538 C   0  0  0  0  0  0  0  0  0  0  0  0
    4.4311   -2.4938    0.7161 C   0  0  0  0  0  0  0  0  0  0  0  0
    5.2084   -3.4580    0.0762 C   0  0  0  0  0  0  0  0  0  0  0  0
    6.0466   -3.0785   -0.9534 C   0  0  0  0  0  0  0  0  0  0  0  0
    6.1009   -1.7380   -1.3320 C   0  0  0  0  0  0  0  0  0  0  0  0
    3.1640   -0.4351    3.4319 C   0  0  0  0  0  0  0  0  0  0  0  0
    2.3167   -0.7711    4.4891 C   0  0  0  0  0  0  0  0  0  0  0  0
    1.0132   -1.2731    4.2275 C   0  0  0  0  0  0  0  0  0  0  0  0
    0.1900   -1.4875    5.3631 C   0  0  0  0  0  0  0  0  0  0  0  0
    0.6413   -1.2897    6.6713 C   0  0  0  0  0  0  0  0  0  0  0  0
    1.9357   -0.8496    6.8937 C   0  0  0  0  0  0  0  0  0  0  0  0
    2.7650   -0.5852    5.8079 C   0  0  0  0  0  0  0  0  0  0  0  0
   -1.2437   -0.6079   -1.8259 H   0  0  0  0  0  0  0  0  0  0  0  0
   -2.7275   -3.2193   -0.8100 H   0  0  0  0  0  0  0  0  0  0  0  0
   -3.1098   -3.8171   -3.1322 H   0  0  0  0  0  0  0  0  0  0  0  0
   -4.6892   -2.4949   -4.5176 H   0  0  0  0  0  0  0  0  0  0  0  0
   -5.8662   -0.5989   -3.5528 H   0  0  0  0  0  0  0  0  0  0  0  0
   -5.1165    2.5389   -2.4548 H   0  0  0  0  0  0  0  0  0  0  0  0
   -5.5408    4.4385   -3.9850 H   0  0  0  0  0  0  0  0  0  0  0  0
   -7.0982    5.7504   -5.3721 H   0  0  0  0  0  0  0  0  0  0  0  0
   -9.4902    5.1060   -5.5164 H   0  0  0  0  0  0  0  0  0  0  0  0
  -10.3232    3.1478   -4.2713 H   0  0  0  0  0  0  0  0  0  0  0  0
   -9.9003    1.2394   -2.7310 H   0  0  0  0  0  0  0  0  0  0  0  0
   -8.3523   -0.0725   -1.3481 H   0  0  0  0  0  0  0  0  0  0  0  0
   -3.7210   -0.2018    3.1878 H   0  0  0  0  0  0  0  0  0  0  0  0
   -4.9027    1.6893    4.1468 H   0  0  0  0  0  0  0  0  0  0  0  0
   -6.4804    3.0095    2.7552 H   0  0  0  0  0  0  0  0  0  0  0  0
   -6.8474    2.4125    0.4279 H   0  0  0  0  0  0  0  0  0  0  0  0
   -4.3372   -3.4641    1.8711 H   0  0  0  0  0  0  0  0  0  0  0  0
    0.7796   -4.0022    3.9425 H   0  0  0  0  0  0  0  0  0  0  0  0
   -0.0120   -6.1180    4.8486 H   0  0  0  0  0  0  0  0  0  0  0  0
   -2.3565   -6.8456    4.4774 H   0  0  0  0  0  0  0  0  0  0  0  0
   -3.8847   -5.4394    3.1704 H   0  0  0  0  0  0  0  0  0  0  0  0
    2.2540    2.0008    2.0505 H   0  0  0  0  0  0  0  0  0  0  0  0
    2.4019    4.3303    1.3898 H   0  0  0  0  0  0  0  0  0  0  0  0
    3.9440    5.0156   -0.4310 H   0  0  0  0  0  0  0  0  0  0  0  0
    5.3067    3.3527   -1.5663 H   0  0  0  0  0  0  0  0  0  0  0  0
    4.7510    0.8141   -3.7229 H   0  0  0  0  0  0  0  0  0  0  0  0
    6.2085    1.4795   -5.5832 H   0  0  0  0  0  0  0  0  0  0  0  0
    8.4300    2.2246   -6.4178 H   0  0  0  0  0  0  0  0  0  0  0  0
   10.7774    2.8337   -5.9757 H   0  0  0  0  0  0  0  0  0  0  0  0
   11.6654    2.7777   -3.6595 H   0  0  0  0  0  0  0  0  0  0  0  0
   10.2087    2.1148   -1.7873 H   0  0  0  0  0  0  0  0  0  0  0  0
    7.9945    1.3733   -0.9518 H   0  0  0  0  0  0  0  0  0  0  0  0
    3.7829   -2.8400    1.5188 H   0  0  0  0  0  0  0  0  0  0  0  0
    5.1518   -4.4981    0.3846 H   0  0  0  0  0  0  0  0  0  0  0  0
    6.6580   -3.8154   -1.4662 H   0  0  0  0  0  0  0  0  0  0  0  0
    6.7748   -1.4846   -2.1490 H   0  0  0  0  0  0  0  0  0  0  0  0
    4.1637   -0.0513    3.6348 H   0  0  0  0  0  0  0  0  0  0  0  0
   -0.8436   -1.8063    5.2427 H   0  0  0  0  0  0  0  0  0  0  0  0
   -0.0263   -1.4759    7.5087 H   0  0  0  0  0  0  0  0  0  0  0  0
    2.2966   -0.6929    7.9064 H   0  0  0  0  0  0  0  0  0  0  0  0
    3.7702   -0.2141    6.0020 H   0  0  0  0  0  0  0  0  0  0  0  0
  1  2  2  0  0  0  0
  2 41  1  0  0  0  0
  2  4  1  0  0  0  0
  3  2  1  0  0  0  0
  4  5  1  0  0  0  0
  5 38  1  0  0  0  0
  6  5  2  0  0  0  0
  6 31  1  0  0  0  0
  7 26  1  0  0  0  0
  7  6  1  0  0  0  0
  8  7  2  0  0  0  0
  9 75  1  0  0  0  0
  9  8  1  0  0  0  0
 10  9  2  0  0  0  0
 11 12  2  0  0  0  0
 11 10  1  0  0  0  0
 12 13  1  0  0  0  0
 13 14  2  0  0  0  0
 13  8  1  0  0  0  0
 14 25  1  0  0  0  0
 15 14  1  0  0  0  0
 16 79  1  0  0  0  0
 16 15  2  0  0  0  0
 17 16  1  0  0  0  0
 18 80  1  0  0  0  0
 18 17  2  0  0  0  0
 19 18  1  0  0  0  0
 20 19  2  0  0  0  0
 20 21  1  0  0  0  0
 21 22  2  0  0  0  0
 22 17  1  0  0  0  0
 22 23  1  0  0  0  0
 23 24  2  0  0  0  0
 24 15  1  0  0  0  0
 24 85  1  0  0  0  0
 25 30  2  0  0  0  0
 25 26  1  0  0  0  0
 26 27  2  0  0  0  0
 27 28  1  0  0  0  0
 27 86  1  0  0  0  0
 28 87  1  0  0  0  0
 29 88  1  0  0  0  0
 29 28  2  0  0  0  0
 30 29  1  0  0  0  0
 31 32  2  0  0  0  0
 32 33  1  0  0  0  0
 32 37  1  0  0  0  0
 33 34  1  0  0  0  0
 34 91  1  0  0  0  0
 34 35  2  0  0  0  0
 35 92  1  0  0  0  0
 36 35  1  0  0  0  0
 36 93  1  0  0  0  0
 37 36  2  0  0  0  0
 38 39  1  0  0  0  0
 38 33  2  0  0  0  0
 39 69  2  0  0  0  0
 40 42  2  0  0  0  0
 40 39  1  0  0  0  0
 41 40  1  0  0  0  0
 42 67  1  0  0  0  0
 43 42  1  0  0  0  0
 44 43  1  0  0  0  0
 44 45  2  0  0  0  0
 45 95  1  0  0  0  0
 46 45  1  0  0  0  0
 46 96  1  0  0  0  0
 47 46  2  0  0  0  0
 48 49  2  0  0  0  0
 48 47  1  0  0  0  0
 49 44  1  0  0  0  0
 50 61  2  0  0  0  0
 50 49  1  0  0  0  0
 51 60  1  0  0  0  0
 51 50  1  0  0  0  0
 52 51  2  0  0  0  0
 53 54  2  0  0  0  0
 53 52  1  0  0  0  0
 54 59  1  0  0  0  0
 55 56  2  0  0  0  0
 55 54  1  0  0  0  0
 56 57  1  0  0  0  0
 57103  1  0  0  0  0
 57 58  2  0  0  0  0
 58104  1  0  0  0  0
 59 58  1  0  0  0  0
 59 60  2  0  0  0  0
 60105  1  0  0  0  0
 61 62  1  0  0  0  0
 62 63  1  0  0  0  0
 62 43  2  0  0  0  0
 63106  1  0  0  0  0
 64107  1  0  0  0  0
 64 63  2  0  0  0  0
 65 64  1  0  0  0  0
 66 65  2  0  0  0  0
 66 61  1  0  0  0  0
 67110  1  0  0  0  0
 67 68  2  0  0  0  0
 68 73  1  0  0  0  0
 69 68  1  0  0  0  0
 69 70  1  0  0  0  0
 70 71  2  0  0  0  0
 71 72  1  0  0  0  0
 71112  1  0  0  0  0
 72113  1  0  0  0  0
 73114  1  0  0  0  0
 73 72  2  0  0  0  0
 74  3  1  0  0  0  0
 76 10  1  0  0  0  0
 77 11  1  0  0  0  0
 78 12  1  0  0  0  0
 81 19  1  0  0  0  0
 82 20  1  0  0  0  0
 83 21  1  0  0  0  0
 84 23  1  0  0  0  0
 89 30  1  0  0  0  0
 90 31  1  0  0  0  0
 94 37  1  0  0  0  0
 97 47  1  0  0  0  0
 98 48  1  0  0  0  0
 99 52  1  0  0  0  0
100 53  1  0  0  0  0
101 55  1  0  0  0  0
102 56  1  0  0  0  0
108 65  1  0  0  0  0
109 66  1  0  0  0  0
111 70  1  0  0  0  0
M  END
$$$$
