O=P1(O)OC2=C(C3=CC(C4=CC(C=CC=C5)=C5C=C4)=CC=C3)C=C6C(C=CC=C6)=C2C7=C(O1)C(C8=CC=CC(C9=CC=C(C=CC=C%10)C%10=C9)=C8)=CC%11=C7C=CC=C%11
 OpenBabel09032010373D

 90100  0  0  0  0  0  0  0  0999 V2000
    0.5635    1.0203   -0.7845 O   0  0  0  0  0  0  0  0  0  0  0  0
    0.1237   -0.2996   -1.3343 P   0  0  0  0  0  0  0  0  0  0  0  0
   -0.7211   -0.1241   -2.6920 O   0  0  0  0  0  0  0  0  0  0  0  0
   -0.8761   -1.1197   -0.3777 O   0  0  0  0  0  0  0  0  0  0  0  0
   -1.2312   -2.4039   -0.7252 C   0  0  0  0  0  0  0  0  0  0  0  0
   -2.5722   -2.6084   -1.1061 C   0  0  0  0  0  0  0  0  0  0  0  0
   -3.5413   -1.4983   -1.2097 C   0  0  0  0  0  0  0  0  0  0  0  0
   -3.7660   -0.6228   -0.1322 C   0  0  0  0  0  0  0  0  0  0  0  0
   -4.6342    0.4788   -0.2313 C   0  0  0  0  0  0  0  0  0  0  0  0
   -4.7972    1.4099    0.8957 C   0  0  0  0  0  0  0  0  0  0  0  0
   -6.0672    1.7055    1.4176 C   0  0  0  0  0  0  0  0  0  0  0  0
   -6.2323    2.5947    2.4946 C   0  0  0  0  0  0  0  0  0  0  0  0
   -7.5028    2.8845    3.0172 C   0  0  0  0  0  0  0  0  0  0  0  0
   -7.6489    3.7687    4.0869 C   0  0  0  0  0  0  0  0  0  0  0  0
   -6.5284    4.3746    4.6473 C   0  0  0  0  0  0  0  0  0  0  0  0
   -5.2587    4.0973    4.1405 C   0  0  0  0  0  0  0  0  0  0  0  0
   -5.0958    3.2092    3.0660 C   0  0  0  0  0  0  0  0  0  0  0  0
   -3.8276    2.9181    2.5481 C   0  0  0  0  0  0  0  0  0  0  0  0
   -3.6823    2.0306    1.4787 C   0  0  0  0  0  0  0  0  0  0  0  0
   -5.3172    0.6746   -1.4397 C   0  0  0  0  0  0  0  0  0  0  0  0
   -5.1267   -0.1911   -2.5166 C   0  0  0  0  0  0  0  0  0  0  0  0
   -4.2416   -1.2635   -2.4030 C   0  0  0  0  0  0  0  0  0  0  0  0
   -2.9604   -3.9136   -1.4144 C   0  0  0  0  0  0  0  0  0  0  0  0
   -2.0490   -4.9745   -1.3942 C   0  0  0  0  0  0  0  0  0  0  0  0
   -0.6952   -4.7479   -1.0272 C   0  0  0  0  0  0  0  0  0  0  0  0
    0.1778   -5.8603   -1.1426 C   0  0  0  0  0  0  0  0  0  0  0  0
   -0.2651   -7.1299   -1.5236 C   0  0  0  0  0  0  0  0  0  0  0  0
   -1.6021   -7.3313   -1.8236 C   0  0  0  0  0  0  0  0  0  0  0  0
   -2.4858   -6.2576   -1.7662 C   0  0  0  0  0  0  0  0  0  0  0  0
   -0.2637   -3.4327   -0.6208 C   0  0  0  0  0  0  0  0  0  0  0  0
    1.0692   -3.1332   -0.1333 C   0  0  0  0  0  0  0  0  0  0  0  0
    1.8420   -2.1104   -0.7435 C   0  0  0  0  0  0  0  0  0  0  0  0
    1.2802   -1.3446   -1.7435 O   0  0  0  0  0  0  0  0  0  0  0  0
    3.1983   -1.8807   -0.4502 C   0  0  0  0  0  0  0  0  0  0  0  0
    4.0027   -0.8835   -1.1691 C   0  0  0  0  0  0  0  0  0  0  0  0
    4.9447   -1.2807   -2.1279 C   0  0  0  0  0  0  0  0  0  0  0  0
    5.7018   -0.3331   -2.8158 C   0  0  0  0  0  0  0  0  0  0  0  0
    5.5226    1.0263   -2.5564 C   0  0  0  0  0  0  0  0  0  0  0  0
    4.5902    1.4611   -1.6030 C   0  0  0  0  0  0  0  0  0  0  0  0
    4.3746    2.8934   -1.3428 C   0  0  0  0  0  0  0  0  0  0  0  0
    3.0856    3.4433   -1.3933 C   0  0  0  0  0  0  0  0  0  0  0  0
    2.8662    4.7982   -1.1402 C   0  0  0  0  0  0  0  0  0  0  0  0
    3.9375    5.6480   -0.8321 C   0  0  0  0  0  0  0  0  0  0  0  0
    3.7389    7.0143   -0.5762 C   0  0  0  0  0  0  0  0  0  0  0  0
    4.8169    7.8462   -0.2695 C   0  0  0  0  0  0  0  0  0  0  0  0
    6.1053    7.3229   -0.2142 C   0  0  0  0  0  0  0  0  0  0  0  0
    6.3187    5.9669   -0.4660 C   0  0  0  0  0  0  0  0  0  0  0  0
    5.2454    5.1167   -0.7777 C   0  0  0  0  0  0  0  0  0  0  0  0
    5.4452    3.7484   -1.0339 C   0  0  0  0  0  0  0  0  0  0  0  0
    3.8489    0.4875   -0.9106 C   0  0  0  0  0  0  0  0  0  0  0  0
    3.7925   -2.6502    0.5514 C   0  0  0  0  0  0  0  0  0  0  0  0
    3.0635   -3.6027    1.2677 C   0  0  0  0  0  0  0  0  0  0  0  0
    1.7001   -3.8438    0.9510 C   0  0  0  0  0  0  0  0  0  0  0  0
    1.0165   -4.7644    1.7859 C   0  0  0  0  0  0  0  0  0  0  0  0
    1.6497   -5.4514    2.8251 C   0  0  0  0  0  0  0  0  0  0  0  0
    2.9927   -5.2280    3.0804 C   0  0  0  0  0  0  0  0  0  0  0  0
    3.6927   -4.3044    2.3097 C   0  0  0  0  0  0  0  0  0  0  0  0
   -1.3715    0.5955   -2.5967 H   0  0  0  0  0  0  0  0  0  0  0  0
   -3.2461   -0.7993    0.8100 H   0  0  0  0  0  0  0  0  0  0  0  0
   -6.9433    1.2245    0.9855 H   0  0  0  0  0  0  0  0  0  0  0  0
   -8.3913    2.4212    2.5940 H   0  0  0  0  0  0  0  0  0  0  0  0
   -8.6382    3.9830    4.4819 H   0  0  0  0  0  0  0  0  0  0  0  0
   -6.6399    5.0634    5.4798 H   0  0  0  0  0  0  0  0  0  0  0  0
   -4.3953    4.5804    4.5921 H   0  0  0  0  0  0  0  0  0  0  0  0
   -2.9377    3.3789    2.9713 H   0  0  0  0  0  0  0  0  0  0  0  0
   -2.6816    1.8341    1.0968 H   0  0  0  0  0  0  0  0  0  0  0  0
   -5.9937    1.5195   -1.5550 H   0  0  0  0  0  0  0  0  0  0  0  0
   -5.6586   -0.0220   -3.4495 H   0  0  0  0  0  0  0  0  0  0  0  0
   -4.0862   -1.9099   -3.2650 H   0  0  0  0  0  0  0  0  0  0  0  0
   -3.9958   -4.1022   -1.6967 H   0  0  0  0  0  0  0  0  0  0  0  0
    1.2428   -5.7492   -0.9464 H   0  0  0  0  0  0  0  0  0  0  0  0
    0.4423   -7.9525   -1.5896 H   0  0  0  0  0  0  0  0  0  0  0  0
   -1.9552   -8.3150   -2.1209 H   0  0  0  0  0  0  0  0  0  0  0  0
   -3.5272   -6.4300   -2.0323 H   0  0  0  0  0  0  0  0  0  0  0  0
    5.0838   -2.3360   -2.3523 H   0  0  0  0  0  0  0  0  0  0  0  0
    6.4221   -0.6524   -3.5640 H   0  0  0  0  0  0  0  0  0  0  0  0
    6.1053    1.7514   -3.1208 H   0  0  0  0  0  0  0  0  0  0  0  0
    2.2316    2.8146   -1.6374 H   0  0  0  0  0  0  0  0  0  0  0  0
    1.8508    5.1843   -1.1896 H   0  0  0  0  0  0  0  0  0  0  0  0
    2.7392    7.4408   -0.6141 H   0  0  0  0  0  0  0  0  0  0  0  0
    4.6493    8.9021   -0.0739 H   0  0  0  0  0  0  0  0  0  0  0  0
    6.9458    7.9689    0.0251 H   0  0  0  0  0  0  0  0  0  0  0  0
    7.3322    5.5755   -0.4171 H   0  0  0  0  0  0  0  0  0  0  0  0
    6.4515    3.3371   -0.9777 H   0  0  0  0  0  0  0  0  0  0  0  0
    3.1339    0.8072   -0.1527 H   0  0  0  0  0  0  0  0  0  0  0  0
    4.8409   -2.4758    0.7933 H   0  0  0  0  0  0  0  0  0  0  0  0
   -0.0462   -4.9539    1.6445 H   0  0  0  0  0  0  0  0  0  0  0  0
    1.0850   -6.1533    3.4332 H   0  0  0  0  0  0  0  0  0  0  0  0
    3.4925   -5.7563    3.8873 H   0  0  0  0  0  0  0  0  0  0  0  0
    4.7412   -4.1245    2.5412 H   0  0  0  0  0  0  0  0  0  0  0  0
  2  1  2  0  0  0  0
  2  4  1  0  0  0  0
  3 58  1  0  0  0  0
  3  2  1  0  0  0  0
  5 30  1  0  0  0  0
  5  4  1  0  0  0  0
  6  5  2  0  0  0  0
  7  6  1  0  0  0  0
  7  8  2  0  0  0  0
  8 59  1  0  0  0  0
  9  8  1  0  0  0  0
  9 10  1  0  0  0  0
 10 11  2  0  0  0  0
 10 19  1  0  0  0  0
 11 12  1  0  0  0  0
 12 13  2  0  0  0  0
 12 17  1  0  0  0  0
 13 14  1  0  0  0  0
 14 62  1  0  0  0  0
 14 15  2  0  0  0  0
 15 63  1  0  0  0  0
 16 64  1  0  0  0  0
 16 15  1  0  0  0  0
 17 16  2  0  0  0  0
 18 65  1  0  0  0  0
 18 17  1  0  0  0  0
 19 18  2  0  0  0  0
 20  9  2  0  0  0  0
 21 22  2  0  0  0  0
 21 20  1  0  0  0  0
 22  7  1  0  0  0  0
 23 24  2  0  0  0  0
 23  6  1  0  0  0  0
 24 25  1  0  0  0  0
 25 30  2  0  0  0  0
 26 25  1  0  0  0  0
 26 71  1  0  0  0  0
 27 26  2  0  0  0  0
 28 29  2  0  0  0  0
 28 27  1  0  0  0  0
 29 24  1  0  0  0  0
 30 31  1  0  0  0  0
 31 53  2  0  0  0  0
 32 34  2  0  0  0  0
 32 31  1  0  0  0  0
 33  2  1  0  0  0  0
 33 32  1  0  0  0  0
 34 51  1  0  0  0  0
 35 50  1  0  0  0  0
 35 34  1  0  0  0  0
 36 35  2  0  0  0  0
 37 38  2  0  0  0  0
 37 36  1  0  0  0  0
 38 39  1  0  0  0  0
 39 40  1  0  0  0  0
 39 50  2  0  0  0  0
 40 49  1  0  0  0  0
 41 40  2  0  0  0  0
 41 42  1  0  0  0  0
 42 43  2  0  0  0  0
 43 48  1  0  0  0  0
 43 44  1  0  0  0  0
 44 45  2  0  0  0  0
 45 46  1  0  0  0  0
 45 81  1  0  0  0  0
 46 82  1  0  0  0  0
 47 83  1  0  0  0  0
 47 46  2  0  0  0  0
 48 47  1  0  0  0  0
 49 84  1  0  0  0  0
 49 48  2  0  0  0  0
 50 85  1  0  0  0  0
 51 86  1  0  0  0  0
 51 52  2  0  0  0  0
 52 57  1  0  0  0  0
 53 52  1  0  0  0  0
 53 54  1  0  0  0  0
 54 55  2  0  0  0  0
 55 56  1  0  0  0  0
 55 88  1  0  0  0  0
 56 89  1  0  0  0  0
 57 90  1  0  0  0  0
 57 56  2  0  0  0  0
 60 11  1  0  0  0  0
 61 13  1  0  0  0  0
 66 19  1  0  0  0  0
 67 20  1  0  0  0  0
 68 21  1  0  0  0  0
 69 22  1  0  0  0  0
 70 23  1  0  0  0  0
 72 27  1  0  0  0  0
 73 28  1  0  0  0  0
 74 29  1  0  0  0  0
 75 36  1  0  0  0  0
 76 37  1  0  0  0  0
 77 38  1  0  0  0  0
 78 41  1  0  0  0  0
 79 42  1  0  0  0  0
 80 44  1  0  0  0  0
 87 54  1  0  0  0  0
M  END
$$$$
