O=P1(O)OC2=C(Br)C=C3C(CCCC3)=C2C4=C(O1)C(Br)=CC5=C4CCCC5
 OpenBabel09032010373D

 46 50  0  0  0  0  0  0  0  0999 V2000
   -0.7039    5.0486   -0.7321 O   0  0  0  0  0  0  0  0  0  0  0  0
    0.2388    3.9878   -0.2571 P   0  0  0  0  0  0  0  0  0  0  0  0
    1.6246    4.6436    0.2297 O   0  0  0  0  0  0  0  0  0  0  0  0
    0.6908    2.9276   -1.3837 O   0  0  0  0  0  0  0  0  0  0  0  0
    1.3788    1.8009   -0.9992 C   0  0  0  0  0  0  0  0  0  0  0  0
    2.6856    1.6461   -1.4708 C   0  0  0  0  0  0  0  0  0  0  0  0
    3.4929    2.9350   -2.6061 Br  0  0  0  0  0  0  0  0  0  0  0  0
    3.4247    0.5273   -1.1127 C   0  0  0  0  0  0  0  0  0  0  0  0
    2.8865   -0.4188   -0.2336 C   0  0  0  0  0  0  0  0  0  0  0  0
    1.5563   -0.2700    0.2373 C   0  0  0  0  0  0  0  0  0  0  0  0
    1.1000   -1.1591    1.3899 C   0  0  0  0  0  0  0  0  0  0  0  0
    1.8160   -2.5054    1.4456 C   0  0  0  0  0  0  0  0  0  0  0  0
    3.3203   -2.2916    1.4324 C   0  0  0  0  0  0  0  0  0  0  0  0
    3.7448   -1.6066    0.1398 C   0  0  0  0  0  0  0  0  0  0  0  0
    0.7392    0.8230   -0.2010 C   0  0  0  0  0  0  0  0  0  0  0  0
   -0.6552    0.9539    0.1288 C   0  0  0  0  0  0  0  0  0  0  0  0
   -1.1231    2.1117    0.7896 C   0  0  0  0  0  0  0  0  0  0  0  0
   -0.2453    3.1414    1.0262 O   0  0  0  0  0  0  0  0  0  0  0  0
   -2.4392    2.2420    1.2369 C   0  0  0  0  0  0  0  0  0  0  0  0
   -3.0212    3.7799    2.1810 Br  0  0  0  0  0  0  0  0  0  0  0  0
   -3.3575    1.2321    0.9842 C   0  0  0  0  0  0  0  0  0  0  0  0
   -2.9789    0.0985    0.2536 C   0  0  0  0  0  0  0  0  0  0  0  0
   -1.6442   -0.0303   -0.2049 C   0  0  0  0  0  0  0  0  0  0  0  0
   -1.2840   -1.1966   -1.1191 C   0  0  0  0  0  0  0  0  0  0  0  0
   -2.4909   -1.8794   -1.7600 C   0  0  0  0  0  0  0  0  0  0  0  0
   -3.5262   -2.1990   -0.6950 C   0  0  0  0  0  0  0  0  0  0  0  0
   -4.0560   -0.9076   -0.0844 C   0  0  0  0  0  0  0  0  0  0  0  0
    1.7374    5.5170   -0.1882 H   0  0  0  0  0  0  0  0  0  0  0  0
    4.4376    0.4016   -1.4896 H   0  0  0  0  0  0  0  0  0  0  0  0
    0.0267   -1.3515    1.3777 H   0  0  0  0  0  0  0  0  0  0  0  0
    1.3020   -0.6087    2.3188 H   0  0  0  0  0  0  0  0  0  0  0  0
    1.5233   -3.0395    2.3565 H   0  0  0  0  0  0  0  0  0  0  0  0
    1.5177   -3.1283    0.5931 H   0  0  0  0  0  0  0  0  0  0  0  0
    3.8413   -3.2505    1.5314 H   0  0  0  0  0  0  0  0  0  0  0  0
    3.6125   -1.6772    2.2934 H   0  0  0  0  0  0  0  0  0  0  0  0
    3.6942   -2.3276   -0.6860 H   0  0  0  0  0  0  0  0  0  0  0  0
    4.7921   -1.2963    0.2392 H   0  0  0  0  0  0  0  0  0  0  0  0
   -4.3863    1.3368    1.3233 H   0  0  0  0  0  0  0  0  0  0  0  0
   -0.7359   -1.9512   -0.5477 H   0  0  0  0  0  0  0  0  0  0  0  0
   -0.6319   -0.8471   -1.9282 H   0  0  0  0  0  0  0  0  0  0  0  0
   -2.1688   -2.7984   -2.2625 H   0  0  0  0  0  0  0  0  0  0  0  0
   -2.9306   -1.2292   -2.5268 H   0  0  0  0  0  0  0  0  0  0  0  0
   -3.0749   -2.8259    0.0844 H   0  0  0  0  0  0  0  0  0  0  0  0
   -4.3550   -2.7708   -1.1272 H   0  0  0  0  0  0  0  0  0  0  0  0
   -4.6286   -1.1530    0.8182 H   0  0  0  0  0  0  0  0  0  0  0  0
   -4.7461   -0.4351   -0.7953 H   0  0  0  0  0  0  0  0  0  0  0  0
  1  2  2  0  0  0  0
  2  3  1  0  0  0  0
  2 18  1  0  0  0  0
  4  5  1  0  0  0  0
  4  2  1  0  0  0  0
  5 15  2  0  0  0  0
  6  8  2  0  0  0  0
  6  5  1  0  0  0  0
  7  6  1  0  0  0  0
  8  9  1  0  0  0  0
  9 14  1  0  0  0  0
  9 10  2  0  0  0  0
 10 11  1  0  0  0  0
 11 12  1  0  0  0  0
 11 31  1  0  0  0  0
 12 32  1  0  0  0  0
 13 12  1  0  0  0  0
 13 34  1  0  0  0  0
 13 35  1  0  0  0  0
 14 37  1  0  0  0  0
 14 13  1  0  0  0  0
 15 16  1  0  0  0  0
 15 10  1  0  0  0  0
 16 17  1  0  0  0  0
 17 18  1  0  0  0  0
 17 19  2  0  0  0  0
 19 20  1  0  0  0  0
 21 19  1  0  0  0  0
 21 38  1  0  0  0  0
 22 21  2  0  0  0  0
 23 16  2  0  0  0  0
 23 22  1  0  0  0  0
 24 39  1  0  0  0  0
 24 23  1  0  0  0  0
 25 24  1  0  0  0  0
 25 26  1  0  0  0  0
 26 27  1  0  0  0  0
 26 43  1  0  0  0  0
 27 22  1  0  0  0  0
 27 45  1  0  0  0  0
 28  3  1  0  0  0  0
 29  8  1  0  0  0  0
 30 11  1  0  0  0  0
 33 12  1  0  0  0  0
 36 14  1  0  0  0  0
 40 24  1  0  0  0  0
 41 25  1  0  0  0  0
 42 25  1  0  0  0  0
 44 26  1  0  0  0  0
 46 27  1  0  0  0  0
M  END
$$$$
