O=P1(O)OC2=C(C3=CC=C(C4=CC(C(F)(F)F)=CC(C(F)(F)F)=C4)C=C3)C=C5C(C=CC=C5)=C2C6=C(O1)C(C7=CC=C(C8=CC(C(F)(F)F)=CC(C(F)(F)F)=C8)C=C7)=CC9=C6C=CC=C9
 OpenBabel09032010373D

 90 98  0  0  0  0  0  0  0  0999 V2000
    1.3062   -0.3323    0.5027 O   0  0  0  0  0  0  0  0  0  0  0  0
    0.7651    0.4065   -0.6841 P   0  0  0  0  0  0  0  0  0  0  0  0
    0.9143   -0.4602   -2.0317 O   0  0  0  0  0  0  0  0  0  0  0  0
    1.5194    1.7873   -1.0371 O   0  0  0  0  0  0  0  0  0  0  0  0
    0.9482    2.7022   -1.9130 C   0  0  0  0  0  0  0  0  0  0  0  0
    1.6808    2.9996   -3.0917 C   0  0  0  0  0  0  0  0  0  0  0  0
    2.9377    2.2997   -3.3771 C   0  0  0  0  0  0  0  0  0  0  0  0
    2.9108    1.1171   -4.1269 C   0  0  0  0  0  0  0  0  0  0  0  0
    3.8982    0.1561   -3.9299 C   0  0  0  0  0  0  0  0  0  0  0  0
    4.8749    0.3757   -2.9443 C   0  0  0  0  0  0  0  0  0  0  0  0
    5.0918   -0.7304   -1.9979 C   0  0  0  0  0  0  0  0  0  0  0  0
    4.2894   -0.6704   -0.8421 C   0  0  0  0  0  0  0  0  0  0  0  0
    4.0838   -1.7620   -0.0081 C   0  0  0  0  0  0  0  0  0  0  0  0
    3.0014   -1.6448    1.0433 C   0  0  0  0  0  0  0  0  0  0  0  0
    3.1172   -2.5872    2.0215 F   0  0  0  0  0  0  0  0  0  0  0  0
    3.0040   -0.4423    1.6819 F   0  0  0  0  0  0  0  0  0  0  0  0
    1.7532   -1.7957    0.5234 F   0  0  0  0  0  0  0  0  0  0  0  0
    4.8149   -2.9244   -0.2663 C   0  0  0  0  0  0  0  0  0  0  0  0
    5.7093   -2.9896   -1.3614 C   0  0  0  0  0  0  0  0  0  0  0  0
    6.4818   -4.2604   -1.6412 C   0  0  0  0  0  0  0  0  0  0  0  0
    7.6993   -4.0312   -2.2052 F   0  0  0  0  0  0  0  0  0  0  0  0
    5.8170   -5.0815   -2.4991 F   0  0  0  0  0  0  0  0  0  0  0  0
    6.7191   -4.9972   -0.5218 F   0  0  0  0  0  0  0  0  0  0  0  0
    5.8131   -1.8939   -2.2461 C   0  0  0  0  0  0  0  0  0  0  0  0
    5.0969    1.6845   -2.4877 C   0  0  0  0  0  0  0  0  0  0  0  0
    4.1060    2.6435   -2.6844 C   0  0  0  0  0  0  0  0  0  0  0  0
    1.1695    3.9377   -3.9810 C   0  0  0  0  0  0  0  0  0  0  0  0
   -0.0576    4.5570   -3.7373 C   0  0  0  0  0  0  0  0  0  0  0  0
   -0.7892    4.2676   -2.5504 C   0  0  0  0  0  0  0  0  0  0  0  0
   -2.0663    4.8757   -2.4437 C   0  0  0  0  0  0  0  0  0  0  0  0
   -2.5640    5.7595   -3.4052 C   0  0  0  0  0  0  0  0  0  0  0  0
   -1.8066    6.0566   -4.5261 C   0  0  0  0  0  0  0  0  0  0  0  0
   -0.5641    5.4533   -4.6928 C   0  0  0  0  0  0  0  0  0  0  0  0
   -0.2552    3.3620   -1.5596 C   0  0  0  0  0  0  0  0  0  0  0  0
   -0.8742    3.1322   -0.2667 C   0  0  0  0  0  0  0  0  0  0  0  0
   -1.1826    1.8134    0.1538 C   0  0  0  0  0  0  0  0  0  0  0  0
   -0.8062    0.7592   -0.6471 O   0  0  0  0  0  0  0  0  0  0  0  0
   -1.8912    1.5045    1.3285 C   0  0  0  0  0  0  0  0  0  0  0  0
   -2.2395    0.1254    1.7112 C   0  0  0  0  0  0  0  0  0  0  0  0
   -1.7411   -0.4403    2.8932 C   0  0  0  0  0  0  0  0  0  0  0  0
   -2.0888   -1.7423    3.2727 C   0  0  0  0  0  0  0  0  0  0  0  0
   -2.9460   -2.5241    2.4836 C   0  0  0  0  0  0  0  0  0  0  0  0
   -3.3135   -3.8925    2.8871 C   0  0  0  0  0  0  0  0  0  0  0  0
   -2.3298   -4.8339    3.2314 C   0  0  0  0  0  0  0  0  0  0  0  0
   -2.6648   -6.1389    3.6330 C   0  0  0  0  0  0  0  0  0  0  0  0
   -1.5748   -7.1250    3.9791 C   0  0  0  0  0  0  0  0  0  0  0  0
   -1.0383   -7.7098    2.8741 F   0  0  0  0  0  0  0  0  0  0  0  0
   -0.5345   -6.5506    4.6444 F   0  0  0  0  0  0  0  0  0  0  0  0
   -2.0065   -8.1441    4.7726 F   0  0  0  0  0  0  0  0  0  0  0  0
   -4.0166   -6.5118    3.6715 C   0  0  0  0  0  0  0  0  0  0  0  0
   -5.0235   -5.5990    3.3240 C   0  0  0  0  0  0  0  0  0  0  0  0
   -6.4807   -5.9880    3.3884 C   0  0  0  0  0  0  0  0  0  0  0  0
   -6.6829   -7.3296    3.2650 F   0  0  0  0  0  0  0  0  0  0  0  0
   -7.0598   -5.6288    4.5664 F   0  0  0  0  0  0  0  0  0  0  0  0
   -7.2283   -5.4078    2.4089 F   0  0  0  0  0  0  0  0  0  0  0  0
   -4.6581   -4.2954    2.9443 C   0  0  0  0  0  0  0  0  0  0  0  0
   -3.4391   -1.9578    1.2982 C   0  0  0  0  0  0  0  0  0  0  0  0
   -3.0921   -0.6550    0.9185 C   0  0  0  0  0  0  0  0  0  0  0  0
   -2.2729    2.5666    2.1510 C   0  0  0  0  0  0  0  0  0  0  0  0
   -1.9388    3.8891    1.8440 C   0  0  0  0  0  0  0  0  0  0  0  0
   -1.2229    4.1870    0.6538 C   0  0  0  0  0  0  0  0  0  0  0  0
   -0.8442    5.5430    0.4754 C   0  0  0  0  0  0  0  0  0  0  0  0
   -1.2066    6.5509    1.3733 C   0  0  0  0  0  0  0  0  0  0  0  0
   -1.9483    6.2361    2.4999 C   0  0  0  0  0  0  0  0  0  0  0  0
   -2.3051    4.9118    2.7362 C   0  0  0  0  0  0  0  0  0  0  0  0
    1.7252   -1.0010   -1.9730 H   0  0  0  0  0  0  0  0  0  0  0  0
    2.0269    0.8545   -4.7064 H   0  0  0  0  0  0  0  0  0  0  0  0
    3.7343   -0.8404   -4.3367 H   0  0  0  0  0  0  0  0  0  0  0  0
    3.7266    0.2416   -0.6345 H   0  0  0  0  0  0  0  0  0  0  0  0
    4.6787   -3.7941    0.3782 H   0  0  0  0  0  0  0  0  0  0  0  0
    6.4300   -1.9708   -3.1407 H   0  0  0  0  0  0  0  0  0  0  0  0
    5.8779    1.8870   -1.7561 H   0  0  0  0  0  0  0  0  0  0  0  0
    4.1620    3.5817   -2.1351 H   0  0  0  0  0  0  0  0  0  0  0  0
    1.7254    4.1638   -4.8898 H   0  0  0  0  0  0  0  0  0  0  0  0
   -2.7143    4.6546   -1.5972 H   0  0  0  0  0  0  0  0  0  0  0  0
   -3.5463    6.2057   -3.2735 H   0  0  0  0  0  0  0  0  0  0  0  0
   -2.1868    6.7407   -5.2794 H   0  0  0  0  0  0  0  0  0  0  0  0
    0.0049    5.6803   -5.5927 H   0  0  0  0  0  0  0  0  0  0  0  0
   -1.0645    0.1288    3.5282 H   0  0  0  0  0  0  0  0  0  0  0  0
   -1.6843   -2.1372    4.2027 H   0  0  0  0  0  0  0  0  0  0  0  0
   -1.2769   -4.5516    3.1809 H   0  0  0  0  0  0  0  0  0  0  0  0
   -4.2882   -7.5246    3.9746 H   0  0  0  0  0  0  0  0  0  0  0  0
   -5.4421   -3.5782    2.6963 H   0  0  0  0  0  0  0  0  0  0  0  0
   -4.0939   -2.5321    0.6457 H   0  0  0  0  0  0  0  0  0  0  0  0
   -3.4947   -0.2514   -0.0088 H   0  0  0  0  0  0  0  0  0  0  0  0
   -2.8306    2.3504    3.0621 H   0  0  0  0  0  0  0  0  0  0  0  0
   -0.2376    5.8395   -0.3786 H   0  0  0  0  0  0  0  0  0  0  0  0
   -0.9008    7.5773    1.1878 H   0  0  0  0  0  0  0  0  0  0  0  0
   -2.2340    7.0133    3.2033 H   0  0  0  0  0  0  0  0  0  0  0  0
   -2.8659    4.6799    3.6400 H   0  0  0  0  0  0  0  0  0  0  0  0
  2 37  1  0  0  0  0
  2  1  2  0  0  0  0
  3 66  1  0  0  0  0
  3  2  1  0  0  0  0
  4  2  1  0  0  0  0
  5 34  1  0  0  0  0
  5  4  1  0  0  0  0
  6  5  2  0  0  0  0
  7  6  1  0  0  0  0
  7 26  2  0  0  0  0
  8  9  2  0  0  0  0
  8  7  1  0  0  0  0
  9 10  1  0  0  0  0
 10 25  2  0  0  0  0
 10 11  1  0  0  0  0
 11 12  1  0  0  0  0
 12 69  1  0  0  0  0
 12 13  2  0  0  0  0
 13 14  1  0  0  0  0
 14 16  1  0  0  0  0
 14 15  1  0  0  0  0
 17 14  1  0  0  0  0
 18 13  1  0  0  0  0
 18 70  1  0  0  0  0
 19 18  2  0  0  0  0
 20 19  1  0  0  0  0
 20 23  1  0  0  0  0
 21 20  1  0  0  0  0
 22 20  1  0  0  0  0
 24 11  2  0  0  0  0
 24 19  1  0  0  0  0
 25 72  1  0  0  0  0
 26 25  1  0  0  0  0
 26 73  1  0  0  0  0
 27 28  2  0  0  0  0
 27  6  1  0  0  0  0
 28 29  1  0  0  0  0
 29 30  1  0  0  0  0
 29 34  2  0  0  0  0
 30 75  1  0  0  0  0
 31 76  1  0  0  0  0
 31 30  2  0  0  0  0
 32 31  1  0  0  0  0
 33 32  2  0  0  0  0
 33 28  1  0  0  0  0
 34 35  1  0  0  0  0
 35 36  2  0  0  0  0
 35 61  1  0  0  0  0
 36 38  1  0  0  0  0
 37 36  1  0  0  0  0
 38 39  1  0  0  0  0
 38 59  2  0  0  0  0
 39 40  2  0  0  0  0
 40 41  1  0  0  0  0
 40 79  1  0  0  0  0
 41 80  1  0  0  0  0
 42 43  1  0  0  0  0
 42 41  2  0  0  0  0
 43 56  2  0  0  0  0
 43 44  1  0  0  0  0
 44 45  2  0  0  0  0
 45 50  1  0  0  0  0
 45 46  1  0  0  0  0
 46 48  1  0  0  0  0
 46 49  1  0  0  0  0
 47 46  1  0  0  0  0
 50 82  1  0  0  0  0
 51 52  1  0  0  0  0
 51 50  2  0  0  0  0
 52 54  1  0  0  0  0
 53 52  1  0  0  0  0
 55 52  1  0  0  0  0
 56 51  1  0  0  0  0
 57 42  1  0  0  0  0
 58 57  2  0  0  0  0
 58 39  1  0  0  0  0
 59 86  1  0  0  0  0
 60 59  1  0  0  0  0
 60 65  2  0  0  0  0
 61 60  1  0  0  0  0
 62 61  2  0  0  0  0
 62 63  1  0  0  0  0
 63 64  2  0  0  0  0
 64 65  1  0  0  0  0
 64 89  1  0  0  0  0
 65 90  1  0  0  0  0
 67  8  1  0  0  0  0
 68  9  1  0  0  0  0
 71 24  1  0  0  0  0
 74 27  1  0  0  0  0
 77 32  1  0  0  0  0
 78 33  1  0  0  0  0
 81 44  1  0  0  0  0
 83 56  1  0  0  0  0
 84 57  1  0  0  0  0
 85 58  1  0  0  0  0
 87 62  1  0  0  0  0
 88 63  1  0  0  0  0
M  END
$$$$
