O=P1(O)OC2=C([Si](C3=CC=CC=C3)(C4=CC=CC=C4)C5=CC=CC=C5)C=C6C(CCCC6)=C2C7=C(O1)C([Si](C8=CC=CC=C8)(C9=CC=CC=C9)C%10=CC=CC=C%10)=CC%11=C7CCCC%11
 OpenBabel09032010383D

112122  0  0  0  0  0  0  0  0999 V2000
   -0.9183    1.8393   -1.9921 O   0  0  0  0  0  0  0  0  0  0  0  0
   -0.0849    1.4356   -0.8126 P   0  0  0  0  0  0  0  0  0  0  0  0
    0.8201    2.6465   -0.2691 O   0  0  0  0  0  0  0  0  0  0  0  0
   -0.9131    0.9850    0.4988 O   0  0  0  0  0  0  0  0  0  0  0  0
   -1.5878   -0.2043    0.4166 C   0  0  0  0  0  0  0  0  0  0  0  0
   -2.9951   -0.1905    0.3741 C   0  0  0  0  0  0  0  0  0  0  0  0
   -4.0758    1.3321    0.5450 Si  0  0  0  0  0  0  0  0  0  0  0  0
   -3.1207    2.9319    0.6090 C   0  0  0  0  0  0  0  0  0  0  0  0
   -3.0655    3.8245   -0.4777 C   0  0  0  0  0  0  0  0  0  0  0  0
   -2.3215    5.0073   -0.4109 C   0  0  0  0  0  0  0  0  0  0  0  0
   -1.6203    5.3298    0.7458 C   0  0  0  0  0  0  0  0  0  0  0  0
   -1.6696    4.4752    1.8412 C   0  0  0  0  0  0  0  0  0  0  0  0
   -2.4131    3.2935    1.7755 C   0  0  0  0  0  0  0  0  0  0  0  0
   -5.2275    1.3109   -0.9363 C   0  0  0  0  0  0  0  0  0  0  0  0
   -4.7033    1.1523   -2.2376 C   0  0  0  0  0  0  0  0  0  0  0  0
   -5.5371    1.1217   -3.3587 C   0  0  0  0  0  0  0  0  0  0  0  0
   -6.9140    1.2438   -3.2071 C   0  0  0  0  0  0  0  0  0  0  0  0
   -7.4573    1.3936   -1.9351 C   0  0  0  0  0  0  0  0  0  0  0  0
   -6.6248    1.4242   -0.8114 C   0  0  0  0  0  0  0  0  0  0  0  0
   -5.0849    1.2512    2.1301 C   0  0  0  0  0  0  0  0  0  0  0  0
   -5.1144    0.1114    2.9554 C   0  0  0  0  0  0  0  0  0  0  0  0
   -5.8851    0.0814    4.1234 C   0  0  0  0  0  0  0  0  0  0  0  0
   -6.6359    1.1913    4.4991 C   0  0  0  0  0  0  0  0  0  0  0  0
   -6.6110    2.3372    3.7116 C   0  0  0  0  0  0  0  0  0  0  0  0
   -5.8429    2.3689    2.5439 C   0  0  0  0  0  0  0  0  0  0  0  0
   -3.6216   -1.4328    0.1621 C   0  0  0  0  0  0  0  0  0  0  0  0
   -2.8947   -2.6226    0.0090 C   0  0  0  0  0  0  0  0  0  0  0  0
   -1.4869   -2.5990    0.0977 C   0  0  0  0  0  0  0  0  0  0  0  0
   -0.7029   -3.8750   -0.1725 C   0  0  0  0  0  0  0  0  0  0  0  0
   -1.4968   -4.9449   -0.9193 C   0  0  0  0  0  0  0  0  0  0  0  0
   -2.8401   -5.1547   -0.2409 C   0  0  0  0  0  0  0  0  0  0  0  0
   -3.6681   -3.8783   -0.3245 C   0  0  0  0  0  0  0  0  0  0  0  0
   -0.7986   -1.3815    0.3881 C   0  0  0  0  0  0  0  0  0  0  0  0
    0.6179   -1.3186    0.6533 C   0  0  0  0  0  0  0  0  0  0  0  0
    1.5077   -0.5158   -0.1288 C   0  0  0  0  0  0  0  0  0  0  0  0
    0.9761    0.2610   -1.1298 O   0  0  0  0  0  0  0  0  0  0  0  0
    2.9164   -0.5513   -0.0009 C   0  0  0  0  0  0  0  0  0  0  0  0
    4.1454    0.3588   -1.0923 Si  0  0  0  0  0  0  0  0  0  0  0  0
    5.5795    0.8784    0.0123 C   0  0  0  0  0  0  0  0  0  0  0  0
    5.3309    1.5055    1.2532 C   0  0  0  0  0  0  0  0  0  0  0  0
    6.3768    1.8921    2.0944 C   0  0  0  0  0  0  0  0  0  0  0  0
    7.6948    1.6597    1.7175 C   0  0  0  0  0  0  0  0  0  0  0  0
    7.9669    1.0403    0.5015 C   0  0  0  0  0  0  0  0  0  0  0  0
    6.9217    0.6524   -0.3425 C   0  0  0  0  0  0  0  0  0  0  0  0
    4.7825   -0.8125   -2.4126 C   0  0  0  0  0  0  0  0  0  0  0  0
    4.5628   -2.2016   -2.3482 C   0  0  0  0  0  0  0  0  0  0  0  0
    5.0486   -3.0584   -3.3411 C   0  0  0  0  0  0  0  0  0  0  0  0
    5.7620   -2.5480   -4.4211 C   0  0  0  0  0  0  0  0  0  0  0  0
    5.9900   -1.1792   -4.5119 C   0  0  0  0  0  0  0  0  0  0  0  0
    5.5056   -0.3209   -3.5208 C   0  0  0  0  0  0  0  0  0  0  0  0
    3.4629    1.8694   -1.9421 C   0  0  0  0  0  0  0  0  0  0  0  0
    3.6855    3.1702   -1.4503 C   0  0  0  0  0  0  0  0  0  0  0  0
    3.1060    4.2857   -2.0614 C   0  0  0  0  0  0  0  0  0  0  0  0
    2.3076    4.1300   -3.1884 C   0  0  0  0  0  0  0  0  0  0  0  0
    2.1092    2.8641   -3.7257 C   0  0  0  0  0  0  0  0  0  0  0  0
    2.6829    1.7479   -3.1123 C   0  0  0  0  0  0  0  0  0  0  0  0
    3.4372   -1.3732    1.0189 C   0  0  0  0  0  0  0  0  0  0  0  0
    2.6089   -2.0958    1.8775 C   0  0  0  0  0  0  0  0  0  0  0  0
    1.2097   -2.0547    1.7161 C   0  0  0  0  0  0  0  0  0  0  0  0
    0.4006   -2.6459    2.8616 C   0  0  0  0  0  0  0  0  0  0  0  0
    0.9399   -3.9785    3.3959 C   0  0  0  0  0  0  0  0  0  0  0  0
    2.4414   -4.1877    3.2019 C   0  0  0  0  0  0  0  0  0  0  0  0
    3.2017   -2.8799    3.0229 C   0  0  0  0  0  0  0  0  0  0  0  0
    1.0378    3.2482   -1.0077 H   0  0  0  0  0  0  0  0  0  0  0  0
   -3.5883    3.6134   -1.4091 H   0  0  0  0  0  0  0  0  0  0  0  0
   -2.2907    5.6718   -1.2704 H   0  0  0  0  0  0  0  0  0  0  0  0
   -1.0364    6.2440    0.7942 H   0  0  0  0  0  0  0  0  0  0  0  0
   -1.1252    4.7206    2.7490 H   0  0  0  0  0  0  0  0  0  0  0  0
   -2.4137    2.6425    2.6502 H   0  0  0  0  0  0  0  0  0  0  0  0
   -3.6284    1.0539   -2.3992 H   0  0  0  0  0  0  0  0  0  0  0  0
   -5.1068    1.0021   -4.3496 H   0  0  0  0  0  0  0  0  0  0  0  0
   -7.5632    1.2203   -4.0780 H   0  0  0  0  0  0  0  0  0  0  0  0
   -8.5336    1.4854   -1.8123 H   0  0  0  0  0  0  0  0  0  0  0  0
   -7.0999    1.5325    0.1618 H   0  0  0  0  0  0  0  0  0  0  0  0
   -4.5337   -0.7769    2.7142 H   0  0  0  0  0  0  0  0  0  0  0  0
   -5.8952   -0.8129    4.7417 H   0  0  0  0  0  0  0  0  0  0  0  0
   -7.2347    1.1651    5.4063 H   0  0  0  0  0  0  0  0  0  0  0  0
   -7.1877    3.2110    4.0042 H   0  0  0  0  0  0  0  0  0  0  0  0
   -5.8442    3.2875    1.9558 H   0  0  0  0  0  0  0  0  0  0  0  0
   -4.7102   -1.4873    0.0793 H   0  0  0  0  0  0  0  0  0  0  0  0
   -0.3778   -4.3000    0.7803 H   0  0  0  0  0  0  0  0  0  0  0  0
    0.1907   -3.6482   -0.7660 H   0  0  0  0  0  0  0  0  0  0  0  0
   -0.9290   -5.8820   -0.9317 H   0  0  0  0  0  0  0  0  0  0  0  0
   -1.6477   -4.6442   -1.9637 H   0  0  0  0  0  0  0  0  0  0  0  0
   -2.6850   -5.4334    0.8092 H   0  0  0  0  0  0  0  0  0  0  0  0
   -3.3832   -5.9796   -0.7153 H   0  0  0  0  0  0  0  0  0  0  0  0
   -4.5289   -3.9725    0.3485 H   0  0  0  0  0  0  0  0  0  0  0  0
   -4.0571   -3.7719   -1.3454 H   0  0  0  0  0  0  0  0  0  0  0  0
    4.3101    1.7010    1.5847 H   0  0  0  0  0  0  0  0  0  0  0  0
    6.1584    2.3734    3.0443 H   0  0  0  0  0  0  0  0  0  0  0  0
    8.5090    1.9588    2.3712 H   0  0  0  0  0  0  0  0  0  0  0  0
    8.9963    0.8537    0.2062 H   0  0  0  0  0  0  0  0  0  0  0  0
    7.1842    0.1641   -1.2789 H   0  0  0  0  0  0  0  0  0  0  0  0
    4.0058   -2.6490   -1.5267 H   0  0  0  0  0  0  0  0  0  0  0  0
    4.8646   -4.1274   -3.2685 H   0  0  0  0  0  0  0  0  0  0  0  0
    6.1360   -3.2159   -5.1918 H   0  0  0  0  0  0  0  0  0  0  0  0
    6.5439   -0.7750   -5.3554 H   0  0  0  0  0  0  0  0  0  0  0  0
    5.7041    0.7460   -3.6288 H   0  0  0  0  0  0  0  0  0  0  0  0
    4.2901    3.3445   -0.5621 H   0  0  0  0  0  0  0  0  0  0  0  0
    3.2546    5.2723   -1.6330 H   0  0  0  0  0  0  0  0  0  0  0  0
    1.8294    4.9931   -3.6378 H   0  0  0  0  0  0  0  0  0  0  0  0
    1.4923    2.7378   -4.6130 H   0  0  0  0  0  0  0  0  0  0  0  0
    2.4830    0.7686   -3.5509 H   0  0  0  0  0  0  0  0  0  0  0  0
    4.5156   -1.4477    1.1730 H   0  0  0  0  0  0  0  0  0  0  0  0
    0.4282   -1.9063    3.6742 H   0  0  0  0  0  0  0  0  0  0  0  0
   -0.6587   -2.7716    2.6258 H   0  0  0  0  0  0  0  0  0  0  0  0
    0.6923   -4.0493    4.4625 H   0  0  0  0  0  0  0  0  0  0  0  0
    0.4110   -4.8120    2.9177 H   0  0  0  0  0  0  0  0  0  0  0  0
    2.8509   -4.7524    4.0473 H   0  0  0  0  0  0  0  0  0  0  0  0
    2.5939   -4.8130    2.3116 H   0  0  0  0  0  0  0  0  0  0  0  0
    3.1555   -2.2744    3.9358 H   0  0  0  0  0  0  0  0  0  0  0  0
    4.2564   -3.1075    2.8289 H   0  0  0  0  0  0  0  0  0  0  0  0
  1  2  2  0  0  0  0
  2  3  1  0  0  0  0
  2  4  1  0  0  0  0
  5  4  1  0  0  0  0
  6  5  1  0  0  0  0
  6  7  1  0  0  0  0
  7  8  1  0  0  0  0
  7 20  1  0  0  0  0
  8 13  2  0  0  0  0
  9 10  2  0  0  0  0
  9  8  1  0  0  0  0
 10 11  1  0  0  0  0
 11 67  1  0  0  0  0
 11 12  2  0  0  0  0
 12 68  1  0  0  0  0
 13 12  1  0  0  0  0
 13 69  1  0  0  0  0
 14 19  1  0  0  0  0
 14  7  1  0  0  0  0
 15 14  2  0  0  0  0
 16 17  2  0  0  0  0
 16 15  1  0  0  0  0
 17 18  1  0  0  0  0
 18 73  1  0  0  0  0
 18 19  2  0  0  0  0
 19 74  1  0  0  0  0
 20 25  2  0  0  0  0
 20 21  1  0  0  0  0
 21 22  2  0  0  0  0
 22 23  1  0  0  0  0
 22 76  1  0  0  0  0
 23 77  1  0  0  0  0
 24 78  1  0  0  0  0
 24 23  2  0  0  0  0
 25 24  1  0  0  0  0
 26  6  2  0  0  0  0
 27 28  2  0  0  0  0
 27 26  1  0  0  0  0
 28 33  1  0  0  0  0
 29 28  1  0  0  0  0
 29 81  1  0  0  0  0
 30 31  1  0  0  0  0
 30 29  1  0  0  0  0
 31 85  1  0  0  0  0
 32 31  1  0  0  0  0
 32 27  1  0  0  0  0
 32 87  1  0  0  0  0
 33  5  2  0  0  0  0
 33 34  1  0  0  0  0
 34 59  2  0  0  0  0
 35 37  2  0  0  0  0
 35 34  1  0  0  0  0
 36  2  1  0  0  0  0
 36 35  1  0  0  0  0
 37 57  1  0  0  0  0
 38 37  1  0  0  0  0
 38 39  1  0  0  0  0
 39 40  1  0  0  0  0
 40 89  1  0  0  0  0
 40 41  2  0  0  0  0
 41 90  1  0  0  0  0
 42 41  1  0  0  0  0
 42 91  1  0  0  0  0
 43 42  2  0  0  0  0
 44 39  2  0  0  0  0
 44 43  1  0  0  0  0
 45 46  1  0  0  0  0
 45 38  1  0  0  0  0
 46 94  1  0  0  0  0
 47 95  1  0  0  0  0
 47 46  2  0  0  0  0
 48 47  1  0  0  0  0
 49 48  2  0  0  0  0
 49 50  1  0  0  0  0
 50 45  2  0  0  0  0
 51 52  1  0  0  0  0
 51 38  1  0  0  0  0
 52 99  1  0  0  0  0
 53100  1  0  0  0  0
 53 52  2  0  0  0  0
 54 53  1  0  0  0  0
 55 54  2  0  0  0  0
 55 56  1  0  0  0  0
 56 51  2  0  0  0  0
 57104  1  0  0  0  0
 57 58  2  0  0  0  0
 58 63  1  0  0  0  0
 59 58  1  0  0  0  0
 59 60  1  0  0  0  0
 60 61  1  0  0  0  0
 60105  1  0  0  0  0
 61107  1  0  0  0  0
 62 61  1  0  0  0  0
 62109  1  0  0  0  0
 63 62  1  0  0  0  0
 63111  1  0  0  0  0
 64  3  1  0  0  0  0
 65  9  1  0  0  0  0
 66 10  1  0  0  0  0
 70 15  1  0  0  0  0
 71 16  1  0  0  0  0
 72 17  1  0  0  0  0
 75 21  1  0  0  0  0
 79 25  1  0  0  0  0
 80 26  1  0  0  0  0
 82 29  1  0  0  0  0
 83 30  1  0  0  0  0
 84 30  1  0  0  0  0
 86 31  1  0  0  0  0
 88 32  1  0  0  0  0
 92 43  1  0  0  0  0
 93 44  1  0  0  0  0
 96 48  1  0  0  0  0
 97 49  1  0  0  0  0
 98 50  1  0  0  0  0
101 54  1  0  0  0  0
102 55  1  0  0  0  0
103 56  1  0  0  0  0
106 60  1  0  0  0  0
108 61  1  0  0  0  0
110 62  1  0  0  0  0
112 63  1  0  0  0  0
M  END
$$$$
