O=P1(O)OC2=C(C3=CC=C(C4=CC=C(C=CC=C5)C5=C4)C=C3)C=C6C(C=CC=C6)=C2C7=C(O1)C(C8=CC=C(C9=CC(C=CC=C%10)=C%10C=C9)C=C8)=CC%11=C7C=CC=C%11
 OpenBabel09032010373D

 90100  0  0  0  0  0  0  0  0999 V2000
   -0.3584   -0.3292    1.3764 O   0  0  0  0  0  0  0  0  0  0  0  0
    0.0825    0.1280    0.0208 P   0  0  0  0  0  0  0  0  0  0  0  0
    0.7837   -1.0682   -0.7961 O   0  0  0  0  0  0  0  0  0  0  0  0
   -1.0728    0.6416   -0.9767 O   0  0  0  0  0  0  0  0  0  0  0  0
   -1.5342    1.9266   -0.7919 C   0  0  0  0  0  0  0  0  0  0  0  0
   -2.8495    2.0709   -0.3201 C   0  0  0  0  0  0  0  0  0  0  0  0
   -3.7072    0.9163   -0.0310 C   0  0  0  0  0  0  0  0  0  0  0  0
   -4.6002    0.4290   -0.9944 C   0  0  0  0  0  0  0  0  0  0  0  0
   -5.4070   -0.6822   -0.7254 C   0  0  0  0  0  0  0  0  0  0  0  0
   -5.3427   -1.3391    0.5128 C   0  0  0  0  0  0  0  0  0  0  0  0
   -6.1678   -2.5255    0.7868 C   0  0  0  0  0  0  0  0  0  0  0  0
   -5.5783   -3.7302    1.1951 C   0  0  0  0  0  0  0  0  0  0  0  0
   -6.3559   -4.8626    1.4524 C   0  0  0  0  0  0  0  0  0  0  0  0
   -7.7495   -4.8202    1.3100 C   0  0  0  0  0  0  0  0  0  0  0  0
   -8.5460   -5.9481    1.5654 C   0  0  0  0  0  0  0  0  0  0  0  0
   -9.9327   -5.8887    1.4204 C   0  0  0  0  0  0  0  0  0  0  0  0
  -10.5394   -4.7025    1.0189 C   0  0  0  0  0  0  0  0  0  0  0  0
   -9.7609   -3.5730    0.7606 C   0  0  0  0  0  0  0  0  0  0  0  0
   -8.3641   -3.6160    0.9009 C   0  0  0  0  0  0  0  0  0  0  0  0
   -7.5652   -2.4872    0.6444 C   0  0  0  0  0  0  0  0  0  0  0  0
   -4.4542   -0.8403    1.4772 C   0  0  0  0  0  0  0  0  0  0  0  0
   -3.6496    0.2722    1.2106 C   0  0  0  0  0  0  0  0  0  0  0  0
   -3.3418    3.3629   -0.1342 C   0  0  0  0  0  0  0  0  0  0  0  0
   -2.5463    4.4862   -0.3773 C   0  0  0  0  0  0  0  0  0  0  0  0
   -1.2199    4.3308   -0.8632 C   0  0  0  0  0  0  0  0  0  0  0  0
   -0.4570    5.5190   -0.9951 C   0  0  0  0  0  0  0  0  0  0  0  0
   -0.9852    6.7849   -0.7275 C   0  0  0  0  0  0  0  0  0  0  0  0
   -2.2969    6.9082   -0.2989 C   0  0  0  0  0  0  0  0  0  0  0  0
   -3.0695    5.7645   -0.1192 C   0  0  0  0  0  0  0  0  0  0  0  0
   -0.6990    3.0156   -1.1439 C   0  0  0  0  0  0  0  0  0  0  0  0
    0.5855    2.7693   -1.7684 C   0  0  0  0  0  0  0  0  0  0  0  0
    1.5292    1.9099   -1.1505 C   0  0  0  0  0  0  0  0  0  0  0  0
    1.2044    1.2836    0.0327 O   0  0  0  0  0  0  0  0  0  0  0  0
    2.8300    1.6930   -1.6380 C   0  0  0  0  0  0  0  0  0  0  0  0
    3.7914    0.8137   -0.9561 C   0  0  0  0  0  0  0  0  0  0  0  0
    4.3794    1.1865    0.2592 C   0  0  0  0  0  0  0  0  0  0  0  0
    5.3108    0.3540    0.8921 C   0  0  0  0  0  0  0  0  0  0  0  0
    5.6827   -0.8789    0.3333 C   0  0  0  0  0  0  0  0  0  0  0  0
    6.6834   -1.7439    0.9859 C   0  0  0  0  0  0  0  0  0  0  0  0
    6.6040   -2.0514    2.3562 C   0  0  0  0  0  0  0  0  0  0  0  0
    7.5595   -2.8683    2.9914 C   0  0  0  0  0  0  0  0  0  0  0  0
    7.4789   -3.1692    4.3620 C   0  0  0  0  0  0  0  0  0  0  0  0
    8.4351   -3.9809    4.9744 C   0  0  0  0  0  0  0  0  0  0  0  0
    9.4849   -4.5035    4.2259 C   0  0  0  0  0  0  0  0  0  0  0  0
    9.5807   -4.2149    2.8640 C   0  0  0  0  0  0  0  0  0  0  0  0
    8.6261   -3.3994    2.2345 C   0  0  0  0  0  0  0  0  0  0  0  0
    8.7097   -3.0990    0.8689 C   0  0  0  0  0  0  0  0  0  0  0  0
    7.7541   -2.2824    0.2568 C   0  0  0  0  0  0  0  0  0  0  0  0
    5.0796   -1.2528   -0.8783 C   0  0  0  0  0  0  0  0  0  0  0  0
    4.1519   -0.4198   -1.5143 C   0  0  0  0  0  0  0  0  0  0  0  0
    3.2002    2.3371   -2.8195 C   0  0  0  0  0  0  0  0  0  0  0  0
    2.3027    3.1458   -3.5219 C   0  0  0  0  0  0  0  0  0  0  0  0
    0.9880    3.3537   -3.0245 C   0  0  0  0  0  0  0  0  0  0  0  0
    0.1171    4.1031   -3.8566 C   0  0  0  0  0  0  0  0  0  0  0  0
    0.5320    4.6699   -5.0648 C   0  0  0  0  0  0  0  0  0  0  0  0
    1.8354    4.4915   -5.4980 C   0  0  0  0  0  0  0  0  0  0  0  0
    2.7124    3.7279   -4.7337 C   0  0  0  0  0  0  0  0  0  0  0  0
    1.3097   -1.6211   -0.1899 H   0  0  0  0  0  0  0  0  0  0  0  0
   -4.6601    0.9038   -1.9716 H   0  0  0  0  0  0  0  0  0  0  0  0
   -6.0738   -1.0477   -1.5039 H   0  0  0  0  0  0  0  0  0  0  0  0
   -4.4975   -3.7995    1.3049 H   0  0  0  0  0  0  0  0  0  0  0  0
   -5.8599   -5.7792    1.7629 H   0  0  0  0  0  0  0  0  0  0  0  0
   -8.0897   -6.8836    1.8807 H   0  0  0  0  0  0  0  0  0  0  0  0
  -10.5376   -6.7686    1.6217 H   0  0  0  0  0  0  0  0  0  0  0  0
  -11.6193   -4.6542    0.9062 H   0  0  0  0  0  0  0  0  0  0  0  0
  -10.2561   -2.6563    0.4479 H   0  0  0  0  0  0  0  0  0  0  0  0
   -8.0407   -1.5566    0.3389 H   0  0  0  0  0  0  0  0  0  0  0  0
   -4.3779   -1.3172    2.4523 H   0  0  0  0  0  0  0  0  0  0  0  0
   -2.9625    0.6216    1.9795 H   0  0  0  0  0  0  0  0  0  0  0  0
   -4.3596    3.4874    0.2347 H   0  0  0  0  0  0  0  0  0  0  0  0
    0.5863    5.4741   -1.3027 H   0  0  0  0  0  0  0  0  0  0  0  0
   -0.3635    7.6679   -0.8502 H   0  0  0  0  0  0  0  0  0  0  0  0
   -2.7148    7.8885   -0.0874 H   0  0  0  0  0  0  0  0  0  0  0  0
   -4.0901    5.8802    0.2417 H   0  0  0  0  0  0  0  0  0  0  0  0
    4.1221    2.1385    0.7201 H   0  0  0  0  0  0  0  0  0  0  0  0
    5.7618    0.6918    1.8234 H   0  0  0  0  0  0  0  0  0  0  0  0
    5.7760   -1.6550    2.9420 H   0  0  0  0  0  0  0  0  0  0  0  0
    6.6660   -2.7706    4.9649 H   0  0  0  0  0  0  0  0  0  0  0  0
    8.3582   -4.2039    6.0353 H   0  0  0  0  0  0  0  0  0  0  0  0
   10.2304   -5.1357    4.7006 H   0  0  0  0  0  0  0  0  0  0  0  0
   10.4086   -4.6319    2.2951 H   0  0  0  0  0  0  0  0  0  0  0  0
    9.5245   -3.4941    0.2668 H   0  0  0  0  0  0  0  0  0  0  0  0
    7.8647   -2.0578   -0.8023 H   0  0  0  0  0  0  0  0  0  0  0  0
    5.3250   -2.2064   -1.3415 H   0  0  0  0  0  0  0  0  0  0  0  0
    3.7047   -0.7456   -2.4520 H   0  0  0  0  0  0  0  0  0  0  0  0
    4.2071    2.1837   -3.2073 H   0  0  0  0  0  0  0  0  0  0  0  0
   -0.9251    4.2483   -3.5778 H   0  0  0  0  0  0  0  0  0  0  0  0
   -0.1713    5.2426   -5.6635 H   0  0  0  0  0  0  0  0  0  0  0  0
    2.1656    4.9276   -6.4367 H   0  0  0  0  0  0  0  0  0  0  0  0
    3.7248    3.5769   -5.1041 H   0  0  0  0  0  0  0  0  0  0  0  0
  2 33  1  0  0  0  0
  2  1  2  0  0  0  0
  3 58  1  0  0  0  0
  3  2  1  0  0  0  0
  4  5  1  0  0  0  0
  4  2  1  0  0  0  0
  5  6  2  0  0  0  0
  6 23  1  0  0  0  0
  6  7  1  0  0  0  0
  7 22  2  0  0  0  0
  8  9  2  0  0  0  0
  8  7  1  0  0  0  0
  9 10  1  0  0  0  0
 10 11  1  0  0  0  0
 10 21  2  0  0  0  0
 11 12  1  0  0  0  0
 12 61  1  0  0  0  0
 12 13  2  0  0  0  0
 13 62  1  0  0  0  0
 14 13  1  0  0  0  0
 14 15  2  0  0  0  0
 15 63  1  0  0  0  0
 16 15  1  0  0  0  0
 16 64  1  0  0  0  0
 17 16  2  0  0  0  0
 18 19  2  0  0  0  0
 18 17  1  0  0  0  0
 19 14  1  0  0  0  0
 20 11  2  0  0  0  0
 20 19  1  0  0  0  0
 21 68  1  0  0  0  0
 22 21  1  0  0  0  0
 22 69  1  0  0  0  0
 23 70  1  0  0  0  0
 24 23  2  0  0  0  0
 24 29  1  0  0  0  0
 25 24  1  0  0  0  0
 26 25  1  0  0  0  0
 26 27  2  0  0  0  0
 27 28  1  0  0  0  0
 28 29  2  0  0  0  0
 28 73  1  0  0  0  0
 29 74  1  0  0  0  0
 30 25  2  0  0  0  0
 30  5  1  0  0  0  0
 31 32  2  0  0  0  0
 31 30  1  0  0  0  0
 32 33  1  0  0  0  0
 34 32  1  0  0  0  0
 34 35  1  0  0  0  0
 35 36  1  0  0  0  0
 36 75  1  0  0  0  0
 36 37  2  0  0  0  0
 37 76  1  0  0  0  0
 38 37  1  0  0  0  0
 38 39  1  0  0  0  0
 39 40  2  0  0  0  0
 40 77  1  0  0  0  0
 40 41  1  0  0  0  0
 41 42  2  0  0  0  0
 42 78  1  0  0  0  0
 42 43  1  0  0  0  0
 43 79  1  0  0  0  0
 44 80  1  0  0  0  0
 44 43  2  0  0  0  0
 45 44  1  0  0  0  0
 46 45  2  0  0  0  0
 46 41  1  0  0  0  0
 47 46  1  0  0  0  0
 48 47  2  0  0  0  0
 48 39  1  0  0  0  0
 49 38  2  0  0  0  0
 50 35  2  0  0  0  0
 50 49  1  0  0  0  0
 51 34  2  0  0  0  0
 52 53  1  0  0  0  0
 52 51  1  0  0  0  0
 53 31  1  0  0  0  0
 54 87  1  0  0  0  0
 54 53  2  0  0  0  0
 55 54  1  0  0  0  0
 56 55  2  0  0  0  0
 56 57  1  0  0  0  0
 57 52  2  0  0  0  0
 59  8  1  0  0  0  0
 60  9  1  0  0  0  0
 65 17  1  0  0  0  0
 66 18  1  0  0  0  0
 67 20  1  0  0  0  0
 71 26  1  0  0  0  0
 72 27  1  0  0  0  0
 81 45  1  0  0  0  0
 82 47  1  0  0  0  0
 83 48  1  0  0  0  0
 84 49  1  0  0  0  0
 85 50  1  0  0  0  0
 86 51  1  0  0  0  0
 88 55  1  0  0  0  0
 89 56  1  0  0  0  0
 90 57  1  0  0  0  0
M  END
$$$$
