O=P1(O)OC2=C(C3=C(OC)C=CC=C3OC)C=C4C(C=CC=C4)=C2C5=C(O1)[C@@]([C@@]6=C(OC)C=CC=C6OC)=CC7=C5C=CC=C7
 OpenBabel09032010373D

 74 80  0  0  0  0  0  0  0  0999 V2000
    0.9870    3.0925   -0.5316 O   0  0  0  0  0  0  0  0  0  0  0  0
    0.4014    1.7690   -0.9112 P   0  0  0  0  0  0  0  0  0  0  0  0
   -0.2836    1.8138   -2.3667 O   0  0  0  0  0  0  0  0  0  0  0  0
    1.4102    0.5299   -1.0833 O   0  0  0  0  0  0  0  0  0  0  0  0
    1.6384   -0.3362   -0.0411 C   0  0  0  0  0  0  0  0  0  0  0  0
    2.9586   -0.4015    0.4378 C   0  0  0  0  0  0  0  0  0  0  0  0
    4.0252    0.4756   -0.0808 C   0  0  0  0  0  0  0  0  0  0  0  0
    4.8675    0.0485   -1.1258 C   0  0  0  0  0  0  0  0  0  0  0  0
    4.7271   -1.2184   -1.6412 O   0  0  0  0  0  0  0  0  0  0  0  0
    4.1314   -1.1661   -2.9379 C   0  0  0  0  0  0  0  0  0  0  0  0
    5.8987    0.8594   -1.6046 C   0  0  0  0  0  0  0  0  0  0  0  0
    6.0853    2.1283   -1.0663 C   0  0  0  0  0  0  0  0  0  0  0  0
    5.2503    2.5832   -0.0439 C   0  0  0  0  0  0  0  0  0  0  0  0
    4.2215    1.7701    0.4497 C   0  0  0  0  0  0  0  0  0  0  0  0
    3.3850    2.1400    1.4755 O   0  0  0  0  0  0  0  0  0  0  0  0
    3.2584    3.5346    1.7269 C   0  0  0  0  0  0  0  0  0  0  0  0
    3.2557   -1.3315    1.4341 C   0  0  0  0  0  0  0  0  0  0  0  0
    2.2690   -2.1576    1.9737 C   0  0  0  0  0  0  0  0  0  0  0  0
    0.9353   -2.0855    1.4892 C   0  0  0  0  0  0  0  0  0  0  0  0
   -0.0148   -2.8895    2.1724 C   0  0  0  0  0  0  0  0  0  0  0  0
    0.3355   -3.7578    3.2109 C   0  0  0  0  0  0  0  0  0  0  0  0
    1.6547   -3.8419    3.6236 C   0  0  0  0  0  0  0  0  0  0  0  0
    2.6134   -3.0398    3.0126 C   0  0  0  0  0  0  0  0  0  0  0  0
    0.5999   -1.1934    0.4024 C   0  0  0  0  0  0  0  0  0  0  0  0
   -0.7159   -1.1500   -0.2075 C   0  0  0  0  0  0  0  0  0  0  0  0
   -1.4254    0.0714   -0.2669 C   0  0  0  0  0  0  0  0  0  0  0  0
   -0.7852    1.2451    0.0503 O   0  0  0  0  0  0  0  0  0  0  0  0
   -2.7986    0.1625   -0.5616 C   0  0  0  0  0  0  0  0  0  0  0  0
   -3.5656    1.4124   -0.3767 C   0  0  0  0  0  0  0  0  0  0  0  0
   -3.5919    2.4408   -1.3358 C   0  0  0  0  0  0  0  0  0  0  0  0
   -2.8520    2.3473   -2.4890 O   0  0  0  0  0  0  0  0  0  0  0  0
   -3.6704    1.8737   -3.5620 C   0  0  0  0  0  0  0  0  0  0  0  0
   -4.3021    3.6284   -1.1209 C   0  0  0  0  0  0  0  0  0  0  0  0
   -5.0475    3.7953    0.0429 C   0  0  0  0  0  0  0  0  0  0  0  0
   -5.0622    2.7864    1.0011 C   0  0  0  0  0  0  0  0  0  0  0  0
   -4.3125    1.6216    0.8009 C   0  0  0  0  0  0  0  0  0  0  0  0
   -4.3730    0.6376    1.7600 O   0  0  0  0  0  0  0  0  0  0  0  0
   -3.5058    0.9547    2.8505 C   0  0  0  0  0  0  0  0  0  0  0  0
   -3.4602   -1.0033   -0.9522 C   0  0  0  0  0  0  0  0  0  0  0  0
   -2.7838   -2.2212   -1.0652 C   0  0  0  0  0  0  0  0  0  0  0  0
   -1.4123   -2.3081   -0.7066 C   0  0  0  0  0  0  0  0  0  0  0  0
   -0.7869   -3.5645   -0.9053 C   0  0  0  0  0  0  0  0  0  0  0  0
   -1.4818   -4.6818   -1.3759 C   0  0  0  0  0  0  0  0  0  0  0  0
   -2.8304   -4.5785   -1.6784 C   0  0  0  0  0  0  0  0  0  0  0  0
   -3.4755   -3.3541   -1.5272 C   0  0  0  0  0  0  0  0  0  0  0  0
   -1.0458    2.4272   -2.3801 H   0  0  0  0  0  0  0  0  0  0  0  0
    4.8540   -0.8163   -3.6825 H   0  0  0  0  0  0  0  0  0  0  0  0
    3.8327   -2.1831   -3.2093 H   0  0  0  0  0  0  0  0  0  0  0  0
    3.2357   -0.5355   -2.9526 H   0  0  0  0  0  0  0  0  0  0  0  0
    6.5600    0.4976   -2.3859 H   0  0  0  0  0  0  0  0  0  0  0  0
    6.8875    2.7624   -1.4344 H   0  0  0  0  0  0  0  0  0  0  0  0
    5.4341    3.5719    0.3635 H   0  0  0  0  0  0  0  0  0  0  0  0
    4.1340    3.9047    2.2697 H   0  0  0  0  0  0  0  0  0  0  0  0
    3.1012    4.1076    0.8073 H   0  0  0  0  0  0  0  0  0  0  0  0
    2.3828    3.6807    2.3665 H   0  0  0  0  0  0  0  0  0  0  0  0
    4.2780   -1.3868    1.8058 H   0  0  0  0  0  0  0  0  0  0  0  0
   -1.0698   -2.8411    1.9098 H   0  0  0  0  0  0  0  0  0  0  0  0
   -0.4299   -4.3589    3.6942 H   0  0  0  0  0  0  0  0  0  0  0  0
    1.9369   -4.5135    4.4293 H   0  0  0  0  0  0  0  0  0  0  0  0
    3.6412   -3.0980    3.3665 H   0  0  0  0  0  0  0  0  0  0  0  0
   -3.0221    1.7095   -4.4278 H   0  0  0  0  0  0  0  0  0  0  0  0
   -4.4224    2.6206   -3.8377 H   0  0  0  0  0  0  0  0  0  0  0  0
   -4.1529    0.9222   -3.3143 H   0  0  0  0  0  0  0  0  0  0  0  0
   -4.2733    4.4222   -1.8626 H   0  0  0  0  0  0  0  0  0  0  0  0
   -5.6125    4.7095    0.2040 H   0  0  0  0  0  0  0  0  0  0  0  0
   -5.6517    2.9043    1.9059 H   0  0  0  0  0  0  0  0  0  0  0  0
   -3.4470    0.0741    3.4970 H   0  0  0  0  0  0  0  0  0  0  0  0
   -2.4922    1.1928    2.5100 H   0  0  0  0  0  0  0  0  0  0  0  0
   -3.9118    1.7824    3.4415 H   0  0  0  0  0  0  0  0  0  0  0  0
   -4.5250   -0.9516   -1.1752 H   0  0  0  0  0  0  0  0  0  0  0  0
    0.2761   -3.6875   -0.7024 H   0  0  0  0  0  0  0  0  0  0  0  0
   -0.9609   -5.6267   -1.5058 H   0  0  0  0  0  0  0  0  0  0  0  0
   -3.3781   -5.4435   -2.0422 H   0  0  0  0  0  0  0  0  0  0  0  0
   -4.5312   -3.2884   -1.7839 H   0  0  0  0  0  0  0  0  0  0  0  0
  2  1  2  0  0  0  0
  2 27  1  0  0  0  0
  3  2  1  0  0  0  0
  4  2  1  0  0  0  0
  4  5  1  0  0  0  0
  5 24  2  0  0  0  0
  5  6  1  0  0  0  0
  6 17  2  0  0  0  0
  7  6  1  0  0  0  0
  7 14  2  0  0  0  0
  8  7  1  0  0  0  0
  9  8  1  0  0  0  0
 10  9  1  0  0  0  0
 11  8  2  0  0  0  0
 11 12  1  0  0  0  0
 12 13  2  0  0  0  0
 13 52  1  0  0  0  0
 13 14  1  0  0  0  0
 14 15  1  0  0  0  0
 15 16  1  0  0  0  0
 16 53  1  0  0  0  0
 16 55  1  0  0  0  0
 17 56  1  0  0  0  0
 17 18  1  0  0  0  0
 18 23  1  0  0  0  0
 19 18  2  0  0  0  0
 19 20  1  0  0  0  0
 20 21  2  0  0  0  0
 21 22  1  0  0  0  0
 21 58  1  0  0  0  0
 22 59  1  0  0  0  0
 23 60  1  0  0  0  0
 23 22  2  0  0  0  0
 24 19  1  0  0  0  0
 25 24  1  0  0  0  0
 26 25  1  0  0  0  0
 26 27  1  0  0  0  0
 28 29  1  0  0  0  0
 28 26  2  0  0  0  0
 29 36  2  0  0  0  0
 30 33  2  0  0  0  0
 30 29  1  0  0  0  0
 31 30  1  0  0  0  0
 32 63  1  0  0  0  0
 32 31  1  0  0  0  0
 33 34  1  0  0  0  0
 34 65  1  0  0  0  0
 34 35  2  0  0  0  0
 35 66  1  0  0  0  0
 36 35  1  0  0  0  0
 36 37  1  0  0  0  0
 37 38  1  0  0  0  0
 38 69  1  0  0  0  0
 38 67  1  0  0  0  0
 39 28  1  0  0  0  0
 40 39  2  0  0  0  0
 40 41  1  0  0  0  0
 41 25  2  0  0  0  0
 42 41  1  0  0  0  0
 42 71  1  0  0  0  0
 43 42  2  0  0  0  0
 44 45  2  0  0  0  0
 44 43  1  0  0  0  0
 45 40  1  0  0  0  0
 46  3  1  0  0  0  0
 47 10  1  0  0  0  0
 48 10  1  0  0  0  0
 49 10  1  0  0  0  0
 50 11  1  0  0  0  0
 51 12  1  0  0  0  0
 54 16  1  0  0  0  0
 57 20  1  0  0  0  0
 61 32  1  0  0  0  0
 62 32  1  0  0  0  0
 64 33  1  0  0  0  0
 68 38  1  0  0  0  0
 70 39  1  0  0  0  0
 72 43  1  0  0  0  0
 73 44  1  0  0  0  0
 74 45  1  0  0  0  0
M  END
$$$$
