O=P1(O)OC2=C(C3=C(OCC)C=CC(C)=C3)C=C4C(C=CC=C4)=C2C5=C(O1)C(C6=CC(C)=CC=C6OCC)=CC7=C5C=CC=C7
 OpenBabel09032010383D

 78 84  0  0  0  0  0  0  0  0999 V2000
   -0.8888   -2.1471   -2.2610 O   0  0  0  0  0  0  0  0  0  0  0  0
   -0.1398   -1.0094   -1.6373 P   0  0  0  0  0  0  0  0  0  0  0  0
    0.5596   -0.0476   -2.7196 O   0  0  0  0  0  0  0  0  0  0  0  0
    1.0937   -1.4743   -0.7079 O   0  0  0  0  0  0  0  0  0  0  0  0
    1.6451   -0.6030    0.2068 C   0  0  0  0  0  0  0  0  0  0  0  0
    3.0001   -0.2787    0.0176 C   0  0  0  0  0  0  0  0  0  0  0  0
    3.7818   -0.7874   -1.1218 C   0  0  0  0  0  0  0  0  0  0  0  0
    3.8619   -0.0793   -2.3395 C   0  0  0  0  0  0  0  0  0  0  0  0
    3.1249    1.0806   -2.4105 O   0  0  0  0  0  0  0  0  0  0  0  0
    3.3697    1.9391   -3.5265 C   0  0  0  0  0  0  0  0  0  0  0  0
    2.5816    3.2181   -3.3078 C   0  0  0  0  0  0  0  0  0  0  0  0
    4.6352   -0.5897   -3.3865 C   0  0  0  0  0  0  0  0  0  0  0  0
    5.3321   -1.7919   -3.2321 C   0  0  0  0  0  0  0  0  0  0  0  0
    5.2550   -2.5115   -2.0377 C   0  0  0  0  0  0  0  0  0  0  0  0
    6.0223   -3.7881   -1.8630 C   0  0  0  0  0  0  0  0  0  0  0  0
    4.4883   -1.9965   -0.9863 C   0  0  0  0  0  0  0  0  0  0  0  0
    3.6172    0.5606    0.9464 C   0  0  0  0  0  0  0  0  0  0  0  0
    2.9085    1.1013    2.0201 C   0  0  0  0  0  0  0  0  0  0  0  0
    1.5389    0.7753    2.2062 C   0  0  0  0  0  0  0  0  0  0  0  0
    0.8771    1.4548    3.2619 C   0  0  0  0  0  0  0  0  0  0  0  0
    1.5356    2.3392    4.1211 C   0  0  0  0  0  0  0  0  0  0  0  0
    2.8850    2.5954    3.9437 C   0  0  0  0  0  0  0  0  0  0  0  0
    3.5643    1.9855    2.8938 C   0  0  0  0  0  0  0  0  0  0  0  0
    0.8832   -0.1539    1.3164 C   0  0  0  0  0  0  0  0  0  0  0  0
   -0.4753   -0.6117    1.5168 C   0  0  0  0  0  0  0  0  0  0  0  0
   -1.4280   -0.4521    0.4834 C   0  0  0  0  0  0  0  0  0  0  0  0
   -1.0057    0.0133   -0.7419 O   0  0  0  0  0  0  0  0  0  0  0  0
   -2.8025   -0.6898    0.6483 C   0  0  0  0  0  0  0  0  0  0  0  0
   -3.7850   -0.4163   -0.4150 C   0  0  0  0  0  0  0  0  0  0  0  0
   -4.0049   -1.3777   -1.4181 C   0  0  0  0  0  0  0  0  0  0  0  0
   -4.9330   -1.1630   -2.4433 C   0  0  0  0  0  0  0  0  0  0  0  0
   -5.1090   -2.1833   -3.5283 C   0  0  0  0  0  0  0  0  0  0  0  0
   -5.6405    0.0400   -2.4720 C   0  0  0  0  0  0  0  0  0  0  0  0
   -5.4413    1.0059   -1.4811 C   0  0  0  0  0  0  0  0  0  0  0  0
   -4.5187    0.7891   -0.4522 C   0  0  0  0  0  0  0  0  0  0  0  0
   -4.2671    1.6791    0.5627 O   0  0  0  0  0  0  0  0  0  0  0  0
   -4.8611    2.9710    0.4749 C   0  0  0  0  0  0  0  0  0  0  0  0
   -4.3466    3.7986    1.6392 C   0  0  0  0  0  0  0  0  0  0  0  0
   -3.2395   -1.1847    1.8787 C   0  0  0  0  0  0  0  0  0  0  0  0
   -2.3422   -1.4629    2.9130 C   0  0  0  0  0  0  0  0  0  0  0  0
   -0.9573   -1.1988    2.7432 C   0  0  0  0  0  0  0  0  0  0  0  0
   -0.1089   -1.5857    3.8117 C   0  0  0  0  0  0  0  0  0  0  0  0
   -0.5989   -2.1410    4.9970 C   0  0  0  0  0  0  0  0  0  0  0  0
   -1.9606   -2.3457    5.1514 C   0  0  0  0  0  0  0  0  0  0  0  0
   -2.8254   -2.0135    4.1126 C   0  0  0  0  0  0  0  0  0  0  0  0
    1.2413    0.5269   -2.3187 H   0  0  0  0  0  0  0  0  0  0  0  0
    4.4360    2.1830   -3.5982 H   0  0  0  0  0  0  0  0  0  0  0  0
    3.0260    1.4611   -4.4506 H   0  0  0  0  0  0  0  0  0  0  0  0
    1.5120    3.0014   -3.2167 H   0  0  0  0  0  0  0  0  0  0  0  0
    2.8881    3.7047   -2.3759 H   0  0  0  0  0  0  0  0  0  0  0  0
    2.7315    3.9152   -4.1369 H   0  0  0  0  0  0  0  0  0  0  0  0
    4.7102   -0.0843   -4.3434 H   0  0  0  0  0  0  0  0  0  0  0  0
    5.9297   -2.1680   -4.0600 H   0  0  0  0  0  0  0  0  0  0  0  0
    6.1484   -4.3033   -2.8210 H   0  0  0  0  0  0  0  0  0  0  0  0
    7.0104   -3.5761   -1.4431 H   0  0  0  0  0  0  0  0  0  0  0  0
    5.4919   -4.4736   -1.1937 H   0  0  0  0  0  0  0  0  0  0  0  0
    4.4307   -2.5438   -0.0463 H   0  0  0  0  0  0  0  0  0  0  0  0
    4.6667    0.8170    0.8038 H   0  0  0  0  0  0  0  0  0  0  0  0
   -0.1900    1.3137    3.4265 H   0  0  0  0  0  0  0  0  0  0  0  0
    0.9844    2.8271    4.9205 H   0  0  0  0  0  0  0  0  0  0  0  0
    3.4052    3.2812    4.6065 H   0  0  0  0  0  0  0  0  0  0  0  0
    4.6180    2.2198    2.7533 H   0  0  0  0  0  0  0  0  0  0  0  0
   -3.4308   -2.3042   -1.4041 H   0  0  0  0  0  0  0  0  0  0  0  0
   -4.3785   -2.0120   -4.3248 H   0  0  0  0  0  0  0  0  0  0  0  0
   -4.9753   -3.1968   -3.1355 H   0  0  0  0  0  0  0  0  0  0  0  0
   -6.1160   -2.1312   -3.9553 H   0  0  0  0  0  0  0  0  0  0  0  0
   -6.3542    0.2362   -3.2691 H   0  0  0  0  0  0  0  0  0  0  0  0
   -6.0235    1.9185   -1.5430 H   0  0  0  0  0  0  0  0  0  0  0  0
   -5.9517    2.8918    0.5472 H   0  0  0  0  0  0  0  0  0  0  0  0
   -4.5785    3.4611   -0.4640 H   0  0  0  0  0  0  0  0  0  0  0  0
   -3.2548    3.8771    1.6033 H   0  0  0  0  0  0  0  0  0  0  0  0
   -4.7742    4.8049    1.6216 H   0  0  0  0  0  0  0  0  0  0  0  0
   -4.6003    3.3227    2.5923 H   0  0  0  0  0  0  0  0  0  0  0  0
   -4.3040   -1.3700    2.0167 H   0  0  0  0  0  0  0  0  0  0  0  0
    0.9701   -1.4685    3.7283 H   0  0  0  0  0  0  0  0  0  0  0  0
    0.0901   -2.4155    5.7912 H   0  0  0  0  0  0  0  0  0  0  0  0
   -2.3502   -2.7770    6.0693 H   0  0  0  0  0  0  0  0  0  0  0  0
   -3.8899   -2.2012    4.2423 H   0  0  0  0  0  0  0  0  0  0  0  0
  1  2  2  0  0  0  0
  2 27  1  0  0  0  0
  2  4  1  0  0  0  0
  3 46  1  0  0  0  0
  3  2  1  0  0  0  0
  4  5  1  0  0  0  0
  5 24  1  0  0  0  0
  6  5  2  0  0  0  0
  6 17  1  0  0  0  0
  7 16  1  0  0  0  0
  7  6  1  0  0  0  0
  8  7  2  0  0  0  0
  9  8  1  0  0  0  0
 10 11  1  0  0  0  0
 10  9  1  0  0  0  0
 11 49  1  0  0  0  0
 11 50  1  0  0  0  0
 12 13  2  0  0  0  0
 12  8  1  0  0  0  0
 13 14  1  0  0  0  0
 14 15  1  0  0  0  0
 14 16  2  0  0  0  0
 15 55  1  0  0  0  0
 15 56  1  0  0  0  0
 16 57  1  0  0  0  0
 17 18  2  0  0  0  0
 18 19  1  0  0  0  0
 18 23  1  0  0  0  0
 19 20  1  0  0  0  0
 20 59  1  0  0  0  0
 20 21  2  0  0  0  0
 21 60  1  0  0  0  0
 22 21  1  0  0  0  0
 22 61  1  0  0  0  0
 23 22  2  0  0  0  0
 24 25  1  0  0  0  0
 24 19  2  0  0  0  0
 25 41  2  0  0  0  0
 26 28  2  0  0  0  0
 26 25  1  0  0  0  0
 27 26  1  0  0  0  0
 28 39  1  0  0  0  0
 29 28  1  0  0  0  0
 30 63  1  0  0  0  0
 30 29  2  0  0  0  0
 31 30  1  0  0  0  0
 32 65  1  0  0  0  0
 32 31  1  0  0  0  0
 33 31  2  0  0  0  0
 33 34  1  0  0  0  0
 34 35  2  0  0  0  0
 35 29  1  0  0  0  0
 35 36  1  0  0  0  0
 37 69  1  0  0  0  0
 37 36  1  0  0  0  0
 37 38  1  0  0  0  0
 38 73  1  0  0  0  0
 39 74  1  0  0  0  0
 39 40  2  0  0  0  0
 40 45  1  0  0  0  0
 41 40  1  0  0  0  0
 41 42  1  0  0  0  0
 42 43  2  0  0  0  0
 43 44  1  0  0  0  0
 43 76  1  0  0  0  0
 44 77  1  0  0  0  0
 45 78  1  0  0  0  0
 45 44  2  0  0  0  0
 47 10  1  0  0  0  0
 48 10  1  0  0  0  0
 51 11  1  0  0  0  0
 52 12  1  0  0  0  0
 53 13  1  0  0  0  0
 54 15  1  0  0  0  0
 58 17  1  0  0  0  0
 62 23  1  0  0  0  0
 64 32  1  0  0  0  0
 66 32  1  0  0  0  0
 67 33  1  0  0  0  0
 68 34  1  0  0  0  0
 70 37  1  0  0  0  0
 71 38  1  0  0  0  0
 72 38  1  0  0  0  0
 75 42  1  0  0  0  0
M  END
$$$$
