O=P1(O)OC2=C([Si](C3=CC=CC=C3)(C)C4=CC=CC=C4)C=C5C(C=CC=C5)=C2C6=C(O1)C([Si](C7=CC=CC=C7)(C8=CC=CC=C8)C)=CC9=C6C=CC=C9
 OpenBabel09032010383D

 90 98  0  0  0  0  0  0  0  0999 V2000
    1.5168   -2.3859   -0.0955 O   0  0  0  0  0  0  0  0  0  0  0  0
    0.7527   -1.3282    0.6380 P   0  0  0  0  0  0  0  0  0  0  0  0
    0.2982   -1.8205    2.1001 O   0  0  0  0  0  0  0  0  0  0  0  0
    1.5552    0.0231    0.9832 O   0  0  0  0  0  0  0  0  0  0  0  0
    1.8300    0.8724   -0.0517 C   0  0  0  0  0  0  0  0  0  0  0  0
    3.1666    1.0146   -0.4669 C   0  0  0  0  0  0  0  0  0  0  0  0
    4.6802    0.1877    0.3317 Si  0  0  0  0  0  0  0  0  0  0  0  0
    4.1879   -0.8424    1.8298 C   0  0  0  0  0  0  0  0  0  0  0  0
    3.8318   -0.2041    3.0359 C   0  0  0  0  0  0  0  0  0  0  0  0
    3.4462   -0.9418    4.1584 C   0  0  0  0  0  0  0  0  0  0  0  0
    3.4173   -2.3313    4.1037 C   0  0  0  0  0  0  0  0  0  0  0  0
    3.7827   -2.9851    2.9313 C   0  0  0  0  0  0  0  0  0  0  0  0
    4.1637   -2.2491    1.8052 C   0  0  0  0  0  0  0  0  0  0  0  0
    5.9360    1.4899    0.8154 C   0  0  0  0  0  0  0  0  0  0  0  0
    5.3627   -0.9928   -0.9757 C   0  0  0  0  0  0  0  0  0  0  0  0
    6.7488   -1.2201   -1.0775 C   0  0  0  0  0  0  0  0  0  0  0  0
    7.2668   -2.0938   -2.0380 C   0  0  0  0  0  0  0  0  0  0  0  0
    6.4116   -2.7571   -2.9127 C   0  0  0  0  0  0  0  0  0  0  0  0
    5.0379   -2.5507   -2.8265 C   0  0  0  0  0  0  0  0  0  0  0  0
    4.5164   -1.6780   -1.8678 C   0  0  0  0  0  0  0  0  0  0  0  0
    3.3997    1.8663   -1.5597 C   0  0  0  0  0  0  0  0  0  0  0  0
    2.3601    2.5340   -2.2170 C   0  0  0  0  0  0  0  0  0  0  0  0
    1.0264    2.4012   -1.7558 C   0  0  0  0  0  0  0  0  0  0  0  0
    0.0273    3.0533   -2.5237 C   0  0  0  0  0  0  0  0  0  0  0  0
    0.3286    3.8348   -3.6421 C   0  0  0  0  0  0  0  0  0  0  0  0
    1.6458    3.9793   -4.0454 C   0  0  0  0  0  0  0  0  0  0  0  0
    2.6533    3.3274   -3.3399 C   0  0  0  0  0  0  0  0  0  0  0  0
    0.7401    1.5996   -0.5949 C   0  0  0  0  0  0  0  0  0  0  0  0
   -0.5667    1.5440    0.0371 C   0  0  0  0  0  0  0  0  0  0  0  0
   -1.2467    0.3063    0.2393 C   0  0  0  0  0  0  0  0  0  0  0  0
   -0.6178   -0.8744   -0.0813 O   0  0  0  0  0  0  0  0  0  0  0  0
   -2.6032    0.2179    0.6294 C   0  0  0  0  0  0  0  0  0  0  0  0
   -3.5644   -1.4218    0.6505 Si  0  0  0  0  0  0  0  0  0  0  0  0
   -3.8969   -1.8904   -1.1542 C   0  0  0  0  0  0  0  0  0  0  0  0
   -3.6423   -1.0102   -2.2223 C   0  0  0  0  0  0  0  0  0  0  0  0
   -3.9055   -1.3872   -3.5422 C   0  0  0  0  0  0  0  0  0  0  0  0
   -4.4287   -2.6466   -3.8204 C   0  0  0  0  0  0  0  0  0  0  0  0
   -4.6898   -3.5326   -2.7797 C   0  0  0  0  0  0  0  0  0  0  0  0
   -4.4266   -3.1603   -1.4588 C   0  0  0  0  0  0  0  0  0  0  0  0
   -5.2695   -1.0543    1.4017 C   0  0  0  0  0  0  0  0  0  0  0  0
   -6.3792   -0.7132    0.6050 C   0  0  0  0  0  0  0  0  0  0  0  0
   -7.6223   -0.4416    1.1834 C   0  0  0  0  0  0  0  0  0  0  0  0
   -7.7806   -0.5029    2.5649 C   0  0  0  0  0  0  0  0  0  0  0  0
   -6.6956   -0.8348    3.3714 C   0  0  0  0  0  0  0  0  0  0  0  0
   -5.4507   -1.1082    2.7977 C   0  0  0  0  0  0  0  0  0  0  0  0
   -2.7178   -2.7955    1.5696 C   0  0  0  0  0  0  0  0  0  0  0  0
   -3.2576    1.4160    0.9519 C   0  0  0  0  0  0  0  0  0  0  0  0
   -2.6083    2.6522    0.9002 C   0  0  0  0  0  0  0  0  0  0  0  0
   -1.2641    2.7319    0.4597 C   0  0  0  0  0  0  0  0  0  0  0  0
   -0.6690    4.0208    0.5057 C   0  0  0  0  0  0  0  0  0  0  0  0
   -1.3701    5.1638    0.9009 C   0  0  0  0  0  0  0  0  0  0  0  0
   -2.6965    5.0583    1.2841 C   0  0  0  0  0  0  0  0  0  0  0  0
   -3.3084    3.8085    1.2887 C   0  0  0  0  0  0  0  0  0  0  0  0
    1.0686   -2.2269    2.5497 H   0  0  0  0  0  0  0  0  0  0  0  0
    3.8280    0.8830    3.1126 H   0  0  0  0  0  0  0  0  0  0  0  0
    3.1701   -0.4270    5.0759 H   0  0  0  0  0  0  0  0  0  0  0  0
    3.1136   -2.9041    4.9746 H   0  0  0  0  0  0  0  0  0  0  0  0
    3.7758   -4.0721    2.8876 H   0  0  0  0  0  0  0  0  0  0  0  0
    4.4279   -2.8026    0.9040 H   0  0  0  0  0  0  0  0  0  0  0  0
    6.3218    2.0106   -0.0662 H   0  0  0  0  0  0  0  0  0  0  0  0
    5.4867    2.2361    1.4778 H   0  0  0  0  0  0  0  0  0  0  0  0
    6.7837    1.0401    1.3412 H   0  0  0  0  0  0  0  0  0  0  0  0
    7.4497   -0.7254   -0.4074 H   0  0  0  0  0  0  0  0  0  0  0  0
    8.3395   -2.2582   -2.0999 H   0  0  0  0  0  0  0  0  0  0  0  0
    6.8130   -3.4378   -3.6582 H   0  0  0  0  0  0  0  0  0  0  0  0
    4.3656   -3.0728   -3.5026 H   0  0  0  0  0  0  0  0  0  0  0  0
    3.4345   -1.5546   -1.8262 H   0  0  0  0  0  0  0  0  0  0  0  0
    4.4166    1.9972   -1.9351 H   0  0  0  0  0  0  0  0  0  0  0  0
   -1.0243    2.9468   -2.2631 H   0  0  0  0  0  0  0  0  0  0  0  0
   -0.4716    4.3186   -4.1955 H   0  0  0  0  0  0  0  0  0  0  0  0
    1.8906    4.5824   -4.9153 H   0  0  0  0  0  0  0  0  0  0  0  0
    3.6797    3.4351   -3.6862 H   0  0  0  0  0  0  0  0  0  0  0  0
   -3.2309   -0.0166   -2.0519 H   0  0  0  0  0  0  0  0  0  0  0  0
   -3.6982   -0.6945   -4.3538 H   0  0  0  0  0  0  0  0  0  0  0  0
   -4.6309   -2.9375   -4.8474 H   0  0  0  0  0  0  0  0  0  0  0  0
   -5.0986   -4.5165   -2.9940 H   0  0  0  0  0  0  0  0  0  0  0  0
   -4.6487   -3.8784   -0.6704 H   0  0  0  0  0  0  0  0  0  0  0  0
   -6.2962   -0.6510   -0.4794 H   0  0  0  0  0  0  0  0  0  0  0  0
   -8.4675   -0.1823    0.5507 H   0  0  0  0  0  0  0  0  0  0  0  0
   -8.7486   -0.2920    3.0117 H   0  0  0  0  0  0  0  0  0  0  0  0
   -6.8162   -0.8815    4.4507 H   0  0  0  0  0  0  0  0  0  0  0  0
   -4.6252   -1.3601    3.4620 H   0  0  0  0  0  0  0  0  0  0  0  0
   -2.3921   -2.4673    2.5612 H   0  0  0  0  0  0  0  0  0  0  0  0
   -3.3910   -3.6475    1.7082 H   0  0  0  0  0  0  0  0  0  0  0  0
   -1.8414   -3.1589    1.0256 H   0  0  0  0  0  0  0  0  0  0  0  0
   -4.3025    1.4028    1.2628 H   0  0  0  0  0  0  0  0  0  0  0  0
    0.3775    4.1536    0.2377 H   0  0  0  0  0  0  0  0  0  0  0  0
   -0.8717    6.1292    0.9088 H   0  0  0  0  0  0  0  0  0  0  0  0
   -3.2525    5.9397    1.5916 H   0  0  0  0  0  0  0  0  0  0  0  0
   -4.3469    3.7421    1.6105 H   0  0  0  0  0  0  0  0  0  0  0  0
  1  2  2  0  0  0  0
  2  4  1  0  0  0  0
  2  3  1  0  0  0  0
  3 54  1  0  0  0  0
  5  4  1  0  0  0  0
  6  5  1  0  0  0  0
  6  7  1  0  0  0  0
  7 14  1  0  0  0  0
  7  8  1  0  0  0  0
  8  9  1  0  0  0  0
  9 55  1  0  0  0  0
  9 10  2  0  0  0  0
 10 56  1  0  0  0  0
 11 10  1  0  0  0  0
 11 57  1  0  0  0  0
 12 11  2  0  0  0  0
 13  8  2  0  0  0  0
 13 12  1  0  0  0  0
 14 62  1  0  0  0  0
 14 61  1  0  0  0  0
 15  7  1  0  0  0  0
 16 15  1  0  0  0  0
 16 63  1  0  0  0  0
 17 16  2  0  0  0  0
 18 19  2  0  0  0  0
 18 17  1  0  0  0  0
 19 20  1  0  0  0  0
 20 67  1  0  0  0  0
 20 15  2  0  0  0  0
 21  6  2  0  0  0  0
 22 23  1  0  0  0  0
 22 21  1  0  0  0  0
 23 28  1  0  0  0  0
 24 69  1  0  0  0  0
 24 23  2  0  0  0  0
 25 24  1  0  0  0  0
 26 25  2  0  0  0  0
 26 27  1  0  0  0  0
 27 22  2  0  0  0  0
 28  5  2  0  0  0  0
 28 29  1  0  0  0  0
 29 30  2  0  0  0  0
 29 49  1  0  0  0  0
 30 32  1  0  0  0  0
 31 30  1  0  0  0  0
 31  2  1  0  0  0  0
 32 33  1  0  0  0  0
 32 47  2  0  0  0  0
 33 40  1  0  0  0  0
 33 46  1  0  0  0  0
 34 33  1  0  0  0  0
 35 73  1  0  0  0  0
 35 34  2  0  0  0  0
 36 35  1  0  0  0  0
 37 36  2  0  0  0  0
 37 38  1  0  0  0  0
 38 39  2  0  0  0  0
 39 34  1  0  0  0  0
 39 77  1  0  0  0  0
 40 45  2  0  0  0  0
 41 42  2  0  0  0  0
 41 40  1  0  0  0  0
 42 43  1  0  0  0  0
 43 80  1  0  0  0  0
 43 44  2  0  0  0  0
 44 81  1  0  0  0  0
 45 44  1  0  0  0  0
 45 82  1  0  0  0  0
 46 84  1  0  0  0  0
 46 83  1  0  0  0  0
 47 86  1  0  0  0  0
 48 47  1  0  0  0  0
 48 53  2  0  0  0  0
 49 50  2  0  0  0  0
 49 48  1  0  0  0  0
 50 51  1  0  0  0  0
 51 88  1  0  0  0  0
 51 52  2  0  0  0  0
 52 53  1  0  0  0  0
 52 89  1  0  0  0  0
 53 90  1  0  0  0  0
 58 12  1  0  0  0  0
 59 13  1  0  0  0  0
 60 14  1  0  0  0  0
 64 17  1  0  0  0  0
 65 18  1  0  0  0  0
 66 19  1  0  0  0  0
 68 21  1  0  0  0  0
 70 25  1  0  0  0  0
 71 26  1  0  0  0  0
 72 27  1  0  0  0  0
 74 36  1  0  0  0  0
 75 37  1  0  0  0  0
 76 38  1  0  0  0  0
 78 41  1  0  0  0  0
 79 42  1  0  0  0  0
 85 46  1  0  0  0  0
 87 50  1  0  0  0  0
M  END
$$$$
