O=P1(O)OC2=C(C3=CC=C(C4CCCCC4)C=C3)C=C5C(CCCC5)=C2C6=C(O1)C(C7=CC=C(C8CCCCC8)C=C7)=CC9=C6CCCC9
 OpenBabel09032010373D

 98106  0  0  0  0  0  0  0  0999 V2000
    0.4019    1.5758    0.9225 O   0  0  0  0  0  0  0  0  0  0  0  0
   -0.0187    0.5575   -0.0907 P   0  0  0  0  0  0  0  0  0  0  0  0
   -0.6737    1.2567   -1.3850 O   0  0  0  0  0  0  0  0  0  0  0  0
   -1.1737   -0.4523    0.4059 O   0  0  0  0  0  0  0  0  0  0  0  0
   -1.4863   -1.5434   -0.3753 C   0  0  0  0  0  0  0  0  0  0  0  0
   -2.7634   -1.5594   -0.9653 C   0  0  0  0  0  0  0  0  0  0  0  0
   -3.7193   -0.4537   -0.7960 C   0  0  0  0  0  0  0  0  0  0  0  0
   -4.2904   -0.1706    0.4518 C   0  0  0  0  0  0  0  0  0  0  0  0
   -5.1864    0.8920    0.6081 C   0  0  0  0  0  0  0  0  0  0  0  0
   -5.5380    1.7000   -0.4817 C   0  0  0  0  0  0  0  0  0  0  0  0
   -6.5029    2.8632   -0.3345 C   0  0  0  0  0  0  0  0  0  0  0  0
   -5.8684    4.0275    0.4539 C   0  0  0  0  0  0  0  0  0  0  0  0
   -6.8986    4.9403    1.1262 C   0  0  0  0  0  0  0  0  0  0  0  0
   -8.2121    4.9835    0.3579 C   0  0  0  0  0  0  0  0  0  0  0  0
   -8.8583    3.6008    0.2525 C   0  0  0  0  0  0  0  0  0  0  0  0
   -7.8493    2.4484    0.2767 C   0  0  0  0  0  0  0  0  0  0  0  0
   -4.9652    1.4218   -1.7297 C   0  0  0  0  0  0  0  0  0  0  0  0
   -4.0707    0.3582   -1.8841 C   0  0  0  0  0  0  0  0  0  0  0  0
   -3.1017   -2.6616   -1.7529 C   0  0  0  0  0  0  0  0  0  0  0  0
   -2.1814   -3.6883   -2.0030 C   0  0  0  0  0  0  0  0  0  0  0  0
   -0.8971   -3.6483   -1.4049 C   0  0  0  0  0  0  0  0  0  0  0  0
    0.1631   -4.6174   -1.9158 C   0  0  0  0  0  0  0  0  0  0  0  0
   -0.4125   -5.9184   -2.4671 C   0  0  0  0  0  0  0  0  0  0  0  0
   -1.4749   -5.6124   -3.5096 C   0  0  0  0  0  0  0  0  0  0  0  0
   -2.6252   -4.8374   -2.8798 C   0  0  0  0  0  0  0  0  0  0  0  0
   -0.5411   -2.5888   -0.5116 C   0  0  0  0  0  0  0  0  0  0  0  0
    0.7020   -2.5377    0.2104 C   0  0  0  0  0  0  0  0  0  0  0  0
    1.5703   -1.4307    0.0520 C   0  0  0  0  0  0  0  0  0  0  0  0
    1.1475   -0.3663   -0.7142 O   0  0  0  0  0  0  0  0  0  0  0  0
    2.8521   -1.3548    0.6231 C   0  0  0  0  0  0  0  0  0  0  0  0
    3.7545   -0.2167    0.3883 C   0  0  0  0  0  0  0  0  0  0  0  0
    4.1378    0.6286    1.4387 C   0  0  0  0  0  0  0  0  0  0  0  0
    4.9990    1.7084    1.2167 C   0  0  0  0  0  0  0  0  0  0  0  0
    5.5051    1.9706   -0.0635 C   0  0  0  0  0  0  0  0  0  0  0  0
    6.4299    3.1440   -0.3319 C   0  0  0  0  0  0  0  0  0  0  0  0
    5.6752    4.4871   -0.2547 C   0  0  0  0  0  0  0  0  0  0  0  0
    6.5841    5.6791    0.0607 C   0  0  0  0  0  0  0  0  0  0  0  0
    8.0006    5.4708   -0.4567 C   0  0  0  0  0  0  0  0  0  0  0  0
    8.6622    4.2409    0.1681 C   0  0  0  0  0  0  0  0  0  0  0  0
    7.6673    3.1505    0.5777 C   0  0  0  0  0  0  0  0  0  0  0  0
    5.1191    1.1309   -1.1165 C   0  0  0  0  0  0  0  0  0  0  0  0
    4.2576    0.0523   -0.8923 C   0  0  0  0  0  0  0  0  0  0  0  0
    3.2577   -2.4109    1.4436 C   0  0  0  0  0  0  0  0  0  0  0  0
    2.4112   -3.4955    1.7170 C   0  0  0  0  0  0  0  0  0  0  0  0
    1.1237   -3.5474    1.1331 C   0  0  0  0  0  0  0  0  0  0  0  0
    0.1615   -4.6532    1.5508 C   0  0  0  0  0  0  0  0  0  0  0  0
    0.5545   -5.3604    2.8467 C   0  0  0  0  0  0  0  0  0  0  0  0
    2.0161   -5.7709    2.7858 C   0  0  0  0  0  0  0  0  0  0  0  0
    2.8989   -4.5316    2.7040 C   0  0  0  0  0  0  0  0  0  0  0  0
   -1.2625    1.9809   -1.1052 H   0  0  0  0  0  0  0  0  0  0  0  0
   -4.0347   -0.7787    1.3176 H   0  0  0  0  0  0  0  0  0  0  0  0
   -5.6013    1.0834    1.5953 H   0  0  0  0  0  0  0  0  0  0  0  0
   -6.7255    3.2386   -1.3442 H   0  0  0  0  0  0  0  0  0  0  0  0
   -5.1772    3.6679    1.2264 H   0  0  0  0  0  0  0  0  0  0  0  0
   -5.2541    4.6193   -0.2375 H   0  0  0  0  0  0  0  0  0  0  0  0
   -6.4838    5.9498    1.2259 H   0  0  0  0  0  0  0  0  0  0  0  0
   -7.0909    4.5803    2.1449 H   0  0  0  0  0  0  0  0  0  0  0  0
   -8.0254    5.3752   -0.6500 H   0  0  0  0  0  0  0  0  0  0  0  0
   -8.9101    5.6793    0.8370 H   0  0  0  0  0  0  0  0  0  0  0  0
   -9.4477    3.5583   -0.6715 H   0  0  0  0  0  0  0  0  0  0  0  0
   -9.5705    3.4603    1.0747 H   0  0  0  0  0  0  0  0  0  0  0  0
   -8.2718    1.5864   -0.2543 H   0  0  0  0  0  0  0  0  0  0  0  0
   -7.7088    2.1277    1.3171 H   0  0  0  0  0  0  0  0  0  0  0  0
   -5.2093    2.0311   -2.5973 H   0  0  0  0  0  0  0  0  0  0  0  0
   -3.6340    0.1728   -2.8640 H   0  0  0  0  0  0  0  0  0  0  0  0
   -4.0922   -2.7080   -2.2047 H   0  0  0  0  0  0  0  0  0  0  0  0
    0.9038   -4.8742   -1.1580 H   0  0  0  0  0  0  0  0  0  0  0  0
    0.7106   -4.1016   -2.7164 H   0  0  0  0  0  0  0  0  0  0  0  0
   -0.8448   -6.5154   -1.6545 H   0  0  0  0  0  0  0  0  0  0  0  0
    0.3901   -6.5139   -2.9165 H   0  0  0  0  0  0  0  0  0  0  0  0
   -1.8524   -6.5412   -3.9515 H   0  0  0  0  0  0  0  0  0  0  0  0
   -1.0324   -5.0258   -4.3248 H   0  0  0  0  0  0  0  0  0  0  0  0
   -3.2243   -5.5173   -2.2607 H   0  0  0  0  0  0  0  0  0  0  0  0
   -3.2751   -4.4682   -3.6826 H   0  0  0  0  0  0  0  0  0  0  0  0
    3.7493    0.4629    2.4416 H   0  0  0  0  0  0  0  0  0  0  0  0
    5.2565    2.3505    2.0556 H   0  0  0  0  0  0  0  0  0  0  0  0
    6.8051    3.0409   -1.3609 H   0  0  0  0  0  0  0  0  0  0  0  0
    5.1722    4.6572   -1.2159 H   0  0  0  0  0  0  0  0  0  0  0  0
    4.8746    4.4620    0.4952 H   0  0  0  0  0  0  0  0  0  0  0  0
    6.1539    6.5914   -0.3678 H   0  0  0  0  0  0  0  0  0  0  0  0
    6.6181    5.8308    1.1471 H   0  0  0  0  0  0  0  0  0  0  0  0
    7.9704    5.3526   -1.5473 H   0  0  0  0  0  0  0  0  0  0  0  0
    8.6125    6.3578   -0.2574 H   0  0  0  0  0  0  0  0  0  0  0  0
    9.3876    3.8320   -0.5457 H   0  0  0  0  0  0  0  0  0  0  0  0
    9.2393    4.5387    1.0520 H   0  0  0  0  0  0  0  0  0  0  0  0
    7.3689    3.3224    1.6200 H   0  0  0  0  0  0  0  0  0  0  0  0
    8.1713    2.1762    0.5609 H   0  0  0  0  0  0  0  0  0  0  0  0
    5.4811    1.3094   -2.1264 H   0  0  0  0  0  0  0  0  0  0  0  0
    3.9746   -0.5805   -1.7312 H   0  0  0  0  0  0  0  0  0  0  0  0
    4.2460   -2.3771    1.9019 H   0  0  0  0  0  0  0  0  0  0  0  0
    0.1066   -5.4072    0.7604 H   0  0  0  0  0  0  0  0  0  0  0  0
   -0.8437   -4.2382    1.6905 H   0  0  0  0  0  0  0  0  0  0  0  0
    0.3872   -4.6977    3.7051 H   0  0  0  0  0  0  0  0  0  0  0  0
   -0.0804   -6.2418    2.9911 H   0  0  0  0  0  0  0  0  0  0  0  0
    2.2852   -6.3587    3.6704 H   0  0  0  0  0  0  0  0  0  0  0  0
    2.1851   -6.4111    1.9106 H   0  0  0  0  0  0  0  0  0  0  0  0
    2.9413   -4.0592    3.6939 H   0  0  0  0  0  0  0  0  0  0  0  0
    3.9179   -4.8410    2.4419 H   0  0  0  0  0  0  0  0  0  0  0  0
  2  4  1  0  0  0  0
  2  1  2  0  0  0  0
  3 50  1  0  0  0  0
  3  2  1  0  0  0  0
  5  4  1  0  0  0  0
  6  7  1  0  0  0  0
  6  5  2  0  0  0  0
  7  8  2  0  0  0  0
  8  9  1  0  0  0  0
  8 51  1  0  0  0  0
  9 52  1  0  0  0  0
 10 11  1  0  0  0  0
 10  9  2  0  0  0  0
 11 16  1  0  0  0  0
 11 12  1  0  0  0  0
 12 13  1  0  0  0  0
 12 54  1  0  0  0  0
 13 56  1  0  0  0  0
 13 57  1  0  0  0  0
 14 59  1  0  0  0  0
 14 13  1  0  0  0  0
 15 16  1  0  0  0  0
 15 14  1  0  0  0  0
 15 61  1  0  0  0  0
 16 63  1  0  0  0  0
 17 10  1  0  0  0  0
 18 17  2  0  0  0  0
 18  7  1  0  0  0  0
 19  6  1  0  0  0  0
 20 19  2  0  0  0  0
 20 21  1  0  0  0  0
 21 26  2  0  0  0  0
 22 21  1  0  0  0  0
 22 67  1  0  0  0  0
 23 22  1  0  0  0  0
 23 69  1  0  0  0  0
 24 25  1  0  0  0  0
 24 23  1  0  0  0  0
 25 73  1  0  0  0  0
 25 20  1  0  0  0  0
 26  5  1  0  0  0  0
 26 27  1  0  0  0  0
 27 45  1  0  0  0  0
 28 27  2  0  0  0  0
 28 30  1  0  0  0  0
 29  2  1  0  0  0  0
 29 28  1  0  0  0  0
 30 43  2  0  0  0  0
 31 30  1  0  0  0  0
 31 32  2  0  0  0  0
 32 75  1  0  0  0  0
 33 32  1  0  0  0  0
 33 76  1  0  0  0  0
 34 33  2  0  0  0  0
 35 36  1  0  0  0  0
 35 34  1  0  0  0  0
 35 40  1  0  0  0  0
 36 37  1  0  0  0  0
 36 79  1  0  0  0  0
 37 81  1  0  0  0  0
 38 83  1  0  0  0  0
 38 37  1  0  0  0  0
 38 39  1  0  0  0  0
 39 40  1  0  0  0  0
 39 85  1  0  0  0  0
 40 86  1  0  0  0  0
 41 42  2  0  0  0  0
 41 34  1  0  0  0  0
 42 31  1  0  0  0  0
 43 44  1  0  0  0  0
 43 90  1  0  0  0  0
 44 49  1  0  0  0  0
 45 46  1  0  0  0  0
 45 44  2  0  0  0  0
 46 92  1  0  0  0  0
 46 47  1  0  0  0  0
 47 94  1  0  0  0  0
 47 93  1  0  0  0  0
 48 47  1  0  0  0  0
 48 95  1  0  0  0  0
 49 48  1  0  0  0  0
 49 97  1  0  0  0  0
 53 11  1  0  0  0  0
 55 12  1  0  0  0  0
 58 14  1  0  0  0  0
 60 15  1  0  0  0  0
 62 16  1  0  0  0  0
 64 17  1  0  0  0  0
 65 18  1  0  0  0  0
 66 19  1  0  0  0  0
 68 22  1  0  0  0  0
 70 23  1  0  0  0  0
 71 24  1  0  0  0  0
 72 24  1  0  0  0  0
 74 25  1  0  0  0  0
 77 35  1  0  0  0  0
 78 36  1  0  0  0  0
 80 37  1  0  0  0  0
 82 38  1  0  0  0  0
 84 39  1  0  0  0  0
 87 40  1  0  0  0  0
 88 41  1  0  0  0  0
 89 42  1  0  0  0  0
 91 46  1  0  0  0  0
 96 48  1  0  0  0  0
 98 49  1  0  0  0  0
M  END
$$$$
