O=P1(O)OC2=C(C3=CC=C(C(C)(C)C)C=C3)C=C4C(C=CC=C4)=C2C5=C(O1)C(C6=CC=C(C(C)(C)C)C=C6)=CC7=C5C=CC=C7
 OpenBabel09032010373D

 82 88  0  0  0  0  0  0  0  0999 V2000
   -0.6068    1.7504   -0.9758 O   0  0  0  0  0  0  0  0  0  0  0  0
    0.0133    0.6994   -0.1091 P   0  0  0  0  0  0  0  0  0  0  0  0
    0.8714    1.3485    1.0874 O   0  0  0  0  0  0  0  0  0  0  0  0
    1.0797   -0.2455   -0.8595 O   0  0  0  0  0  0  0  0  0  0  0  0
    1.5789   -1.3442   -0.1956 C   0  0  0  0  0  0  0  0  0  0  0  0
    2.9429   -1.3053    0.1479 C   0  0  0  0  0  0  0  0  0  0  0  0
    3.7875   -0.1304   -0.1244 C   0  0  0  0  0  0  0  0  0  0  0  0
    4.3489    0.6075    0.9240 C   0  0  0  0  0  0  0  0  0  0  0  0
    5.1331    1.7387    0.6695 C   0  0  0  0  0  0  0  0  0  0  0  0
    5.3888    2.1774   -0.6428 C   0  0  0  0  0  0  0  0  0  0  0  0
    6.2542    3.4263   -0.8859 C   0  0  0  0  0  0  0  0  0  0  0  0
    5.6005    4.6500   -0.2083 C   0  0  0  0  0  0  0  0  0  0  0  0
    7.6615    3.2069   -0.2900 C   0  0  0  0  0  0  0  0  0  0  0  0
    6.4400    3.7765   -2.3797 C   0  0  0  0  0  0  0  0  0  0  0  0
    4.8260    1.4291   -1.6877 C   0  0  0  0  0  0  0  0  0  0  0  0
    4.0420    0.2961   -1.4328 C   0  0  0  0  0  0  0  0  0  0  0  0
    3.4849   -2.4234    0.7834 C   0  0  0  0  0  0  0  0  0  0  0  0
    2.6981   -3.5330    1.1063 C   0  0  0  0  0  0  0  0  0  0  0  0
    1.3179   -3.5541    0.7676 C   0  0  0  0  0  0  0  0  0  0  0  0
    0.5791   -4.6734    1.2299 C   0  0  0  0  0  0  0  0  0  0  0  0
    1.1723   -5.7369    1.9161 C   0  0  0  0  0  0  0  0  0  0  0  0
    2.5307   -5.7113    2.1853 C   0  0  0  0  0  0  0  0  0  0  0  0
    3.2861   -4.6116    1.7892 C   0  0  0  0  0  0  0  0  0  0  0  0
    0.7302   -2.4527    0.0433 C   0  0  0  0  0  0  0  0  0  0  0  0
   -0.6404   -2.4340   -0.4297 C   0  0  0  0  0  0  0  0  0  0  0  0
   -1.5004   -1.3608   -0.0791 C   0  0  0  0  0  0  0  0  0  0  0  0
   -0.9943   -0.3046    0.6479 O   0  0  0  0  0  0  0  0  0  0  0  0
   -2.8755   -1.3375   -0.3669 C   0  0  0  0  0  0  0  0  0  0  0  0
   -3.7574   -0.2496    0.0735 C   0  0  0  0  0  0  0  0  0  0  0  0
   -4.5543   -0.3910    1.2140 C   0  0  0  0  0  0  0  0  0  0  0  0
   -5.4072    0.6399    1.6257 C   0  0  0  0  0  0  0  0  0  0  0  0
   -5.4973    1.8504    0.9133 C   0  0  0  0  0  0  0  0  0  0  0  0
   -6.4417    2.9641    1.3966 C   0  0  0  0  0  0  0  0  0  0  0  0
   -6.0366    3.4066    2.8193 C   0  0  0  0  0  0  0  0  0  0  0  0
   -7.8936    2.4393    1.4220 C   0  0  0  0  0  0  0  0  0  0  0  0
   -6.4280    4.2259    0.5044 C   0  0  0  0  0  0  0  0  0  0  0  0
   -4.6938    1.9801   -0.2300 C   0  0  0  0  0  0  0  0  0  0  0  0
   -3.8407    0.9480   -0.6431 C   0  0  0  0  0  0  0  0  0  0  0  0
   -3.4112   -2.4035   -1.0914 C   0  0  0  0  0  0  0  0  0  0  0  0
   -2.6076   -3.4506   -1.5504 C   0  0  0  0  0  0  0  0  0  0  0  0
   -1.2203   -3.4716   -1.2461 C   0  0  0  0  0  0  0  0  0  0  0  0
   -0.4667   -4.5214   -1.8310 C   0  0  0  0  0  0  0  0  0  0  0  0
   -1.0509   -5.5228   -2.6112 C   0  0  0  0  0  0  0  0  0  0  0  0
   -2.4151   -5.5013   -2.8510 C   0  0  0  0  0  0  0  0  0  0  0  0
   -3.1865   -4.4674   -2.3286 C   0  0  0  0  0  0  0  0  0  0  0  0
    1.4047    2.0920    0.7519 H   0  0  0  0  0  0  0  0  0  0  0  0
    4.1680    0.3139    1.9567 H   0  0  0  0  0  0  0  0  0  0  0  0
    5.5432    2.2752    1.5226 H   0  0  0  0  0  0  0  0  0  0  0  0
    5.5302    4.5336    0.8788 H   0  0  0  0  0  0  0  0  0  0  0  0
    6.1795    5.5619   -0.3958 H   0  0  0  0  0  0  0  0  0  0  0  0
    4.5852    4.8155   -0.5878 H   0  0  0  0  0  0  0  0  0  0  0  0
    8.1427    2.3249   -0.7291 H   0  0  0  0  0  0  0  0  0  0  0  0
    8.3102    4.0701   -0.4801 H   0  0  0  0  0  0  0  0  0  0  0  0
    7.6339    3.0603    0.7953 H   0  0  0  0  0  0  0  0  0  0  0  0
    7.0614    4.6719   -2.5012 H   0  0  0  0  0  0  0  0  0  0  0  0
    6.9347    2.9650   -2.9260 H   0  0  0  0  0  0  0  0  0  0  0  0
    5.4804    3.9821   -2.8683 H   0  0  0  0  0  0  0  0  0  0  0  0
    4.9787    1.7014   -2.7286 H   0  0  0  0  0  0  0  0  0  0  0  0
    3.6236   -0.2539   -2.2746 H   0  0  0  0  0  0  0  0  0  0  0  0
    4.5419   -2.4157    1.0482 H   0  0  0  0  0  0  0  0  0  0  0  0
   -0.4963   -4.7290    1.0705 H   0  0  0  0  0  0  0  0  0  0  0  0
    0.5645   -6.5769    2.2418 H   0  0  0  0  0  0  0  0  0  0  0  0
    2.9998   -6.5334    2.7187 H   0  0  0  0  0  0  0  0  0  0  0  0
    4.3468   -4.5970    2.0341 H   0  0  0  0  0  0  0  0  0  0  0  0
   -4.5136   -1.3082    1.7979 H   0  0  0  0  0  0  0  0  0  0  0  0
   -6.0018    0.4803    2.5225 H   0  0  0  0  0  0  0  0  0  0  0  0
   -4.9981    3.7577    2.8425 H   0  0  0  0  0  0  0  0  0  0  0  0
   -6.6735    4.2249    3.1751 H   0  0  0  0  0  0  0  0  0  0  0  0
   -6.1248    2.5927    3.5474 H   0  0  0  0  0  0  0  0  0  0  0  0
   -8.0211    1.6059    2.1215 H   0  0  0  0  0  0  0  0  0  0  0  0
   -8.5928    3.2255    1.7300 H   0  0  0  0  0  0  0  0  0  0  0  0
   -8.2031    2.0872    0.4307 H   0  0  0  0  0  0  0  0  0  0  0  0
   -6.7390    3.9978   -0.5218 H   0  0  0  0  0  0  0  0  0  0  0  0
   -7.1168    4.9884    0.8877 H   0  0  0  0  0  0  0  0  0  0  0  0
   -5.4321    4.6825    0.4661 H   0  0  0  0  0  0  0  0  0  0  0  0
   -4.7008    2.8847   -0.8317 H   0  0  0  0  0  0  0  0  0  0  0  0
   -3.2317    1.0961   -1.5338 H   0  0  0  0  0  0  0  0  0  0  0  0
   -4.4759   -2.3943   -1.3243 H   0  0  0  0  0  0  0  0  0  0  0  0
    0.6125   -4.5674   -1.6958 H   0  0  0  0  0  0  0  0  0  0  0  0
   -0.4322   -6.3107   -3.0326 H   0  0  0  0  0  0  0  0  0  0  0  0
   -2.8776   -6.2748   -3.4577 H   0  0  0  0  0  0  0  0  0  0  0  0
   -4.2525   -4.4536   -2.5491 H   0  0  0  0  0  0  0  0  0  0  0  0
  1  2  2  0  0  0  0
  2 27  1  0  0  0  0
  2  3  1  0  0  0  0
  4  5  1  0  0  0  0
  4  2  1  0  0  0  0
  5 24  2  0  0  0  0
  5  6  1  0  0  0  0
  6 17  2  0  0  0  0
  7  6  1  0  0  0  0
  7  8  2  0  0  0  0
  8 47  1  0  0  0  0
  9  8  1  0  0  0  0
  9 48  1  0  0  0  0
 10  9  2  0  0  0  0
 11 10  1  0  0  0  0
 11 13  1  0  0  0  0
 11 12  1  0  0  0  0
 12 49  1  0  0  0  0
 13 54  1  0  0  0  0
 14 11  1  0  0  0  0
 15 16  2  0  0  0  0
 15 10  1  0  0  0  0
 16  7  1  0  0  0  0
 17 60  1  0  0  0  0
 17 18  1  0  0  0  0
 18 23  1  0  0  0  0
 19 18  2  0  0  0  0
 19 20  1  0  0  0  0
 20 21  2  0  0  0  0
 21 22  1  0  0  0  0
 21 62  1  0  0  0  0
 22 63  1  0  0  0  0
 23 64  1  0  0  0  0
 23 22  2  0  0  0  0
 24 19  1  0  0  0  0
 25 26  2  0  0  0  0
 25 24  1  0  0  0  0
 26 27  1  0  0  0  0
 28 26  1  0  0  0  0
 28 29  1  0  0  0  0
 29 30  2  0  0  0  0
 30 31  1  0  0  0  0
 30 65  1  0  0  0  0
 31 66  1  0  0  0  0
 32 33  1  0  0  0  0
 32 31  2  0  0  0  0
 33 35  1  0  0  0  0
 33 34  1  0  0  0  0
 34 67  1  0  0  0  0
 34 68  1  0  0  0  0
 34 69  1  0  0  0  0
 35 71  1  0  0  0  0
 35 70  1  0  0  0  0
 36 74  1  0  0  0  0
 36 33  1  0  0  0  0
 37 32  1  0  0  0  0
 38 37  2  0  0  0  0
 38 29  1  0  0  0  0
 39 28  2  0  0  0  0
 40 41  1  0  0  0  0
 40 39  1  0  0  0  0
 41 25  1  0  0  0  0
 42 79  1  0  0  0  0
 42 41  2  0  0  0  0
 43 42  1  0  0  0  0
 44 43  2  0  0  0  0
 44 45  1  0  0  0  0
 45 40  2  0  0  0  0
 46  3  1  0  0  0  0
 50 12  1  0  0  0  0
 51 12  1  0  0  0  0
 52 13  1  0  0  0  0
 53 13  1  0  0  0  0
 55 14  1  0  0  0  0
 56 14  1  0  0  0  0
 57 14  1  0  0  0  0
 58 15  1  0  0  0  0
 59 16  1  0  0  0  0
 61 20  1  0  0  0  0
 72 35  1  0  0  0  0
 73 36  1  0  0  0  0
 75 36  1  0  0  0  0
 76 37  1  0  0  0  0
 77 38  1  0  0  0  0
 78 39  1  0  0  0  0
 80 43  1  0  0  0  0
 81 44  1  0  0  0  0
 82 45  1  0  0  0  0
M  END
$$$$
