O=P1(O)OC2=C(C3=C(C4CCCCC4)C=C(C5CCCCC5)C=C3C6CCCCC6)C=C7C(C=CC=C7)=C2C8=C(O1)[C@@]([C@@]9=C(C%10CCCCC%10)C=C(C%11CCCCC%11)C=C9C%12CCCCC%12)=CC%13=C8C=CC=C%13
 OpenBabel09032010373D

154166  0  0  0  0  0  0  0  0999 V2000
    0.8908   -0.6869   -2.0053 O   0  0  0  0  0  0  0  0  0  0  0  0
    0.0643   -0.3552   -0.8042 P   0  0  0  0  0  0  0  0  0  0  0  0
   -0.8382   -1.6074   -0.3596 O   0  0  0  0  0  0  0  0  0  0  0  0
    0.8539    0.0507    0.5371 O   0  0  0  0  0  0  0  0  0  0  0  0
    1.4584    1.2872    0.5542 C   0  0  0  0  0  0  0  0  0  0  0  0
    2.8648    1.3072    0.6264 C   0  0  0  0  0  0  0  0  0  0  0  0
    3.6776    0.0722    0.7297 C   0  0  0  0  0  0  0  0  0  0  0  0
    4.4575   -0.3852   -0.3721 C   0  0  0  0  0  0  0  0  0  0  0  0
    4.5076    0.3530   -1.7143 C   0  0  0  0  0  0  0  0  0  0  0  0
    5.8424    1.1032   -1.8657 C   0  0  0  0  0  0  0  0  0  0  0  0
    5.8517    2.0026   -3.1037 C   0  0  0  0  0  0  0  0  0  0  0  0
    5.0556    1.4330   -4.2781 C   0  0  0  0  0  0  0  0  0  0  0  0
    4.9562   -0.0843   -4.2146 C   0  0  0  0  0  0  0  0  0  0  0  0
    4.2406   -0.5521   -2.9435 C   0  0  0  0  0  0  0  0  0  0  0  0
    5.2623   -1.5335   -0.2149 C   0  0  0  0  0  0  0  0  0  0  0  0
    5.2938   -2.2644    0.9753 C   0  0  0  0  0  0  0  0  0  0  0  0
    6.1488   -3.5099    1.1280 C   0  0  0  0  0  0  0  0  0  0  0  0
    5.7343   -4.6150    0.1405 C   0  0  0  0  0  0  0  0  0  0  0  0
    6.5956   -5.8655    0.3090 C   0  0  0  0  0  0  0  0  0  0  0  0
    8.0828   -5.5448    0.1911 C   0  0  0  0  0  0  0  0  0  0  0  0
    8.5020   -4.4482    1.1659 C   0  0  0  0  0  0  0  0  0  0  0  0
    7.6489   -3.1915    1.0019 C   0  0  0  0  0  0  0  0  0  0  0  0
    4.5172   -1.8156    2.0451 C   0  0  0  0  0  0  0  0  0  0  0  0
    3.7216   -0.6543    1.9562 C   0  0  0  0  0  0  0  0  0  0  0  0
    2.9427   -0.2190    3.2006 C   0  0  0  0  0  0  0  0  0  0  0  0
    3.8735    0.1610    4.3742 C   0  0  0  0  0  0  0  0  0  0  0  0
    3.1972    0.0417    5.7442 C   0  0  0  0  0  0  0  0  0  0  0  0
    1.6951    0.2807    5.6661 C   0  0  0  0  0  0  0  0  0  0  0  0
    1.0008   -0.7282    4.7484 C   0  0  0  0  0  0  0  0  0  0  0  0
    1.9046   -1.2660    3.6347 C   0  0  0  0  0  0  0  0  0  0  0  0
    3.4996    2.5514    0.6557 C   0  0  0  0  0  0  0  0  0  0  0  0
    2.7768    3.7402    0.5453 C   0  0  0  0  0  0  0  0  0  0  0  0
    1.3588    3.7066    0.4932 C   0  0  0  0  0  0  0  0  0  0  0  0
    0.7104    4.9521    0.2930 C   0  0  0  0  0  0  0  0  0  0  0  0
    1.4087    6.1601    0.2158 C   0  0  0  0  0  0  0  0  0  0  0  0
    2.7902    6.1653    0.3207 C   0  0  0  0  0  0  0  0  0  0  0  0
    3.4696    4.9610    0.4791 C   0  0  0  0  0  0  0  0  0  0  0  0
    0.6540    2.4530    0.6001 C   0  0  0  0  0  0  0  0  0  0  0  0
   -0.7811    2.3492    0.8093 C   0  0  0  0  0  0  0  0  0  0  0  0
   -1.5817    1.4965    0.0084 C   0  0  0  0  0  0  0  0  0  0  0  0
   -1.0138    0.8085   -1.0399 O   0  0  0  0  0  0  0  0  0  0  0  0
   -2.9894    1.4281    0.1000 C   0  0  0  0  0  0  0  0  0  0  0  0
   -3.7820    0.5084   -0.7416 C   0  0  0  0  0  0  0  0  0  0  0  0
   -4.3354   -0.6931   -0.2152 C   0  0  0  0  0  0  0  0  0  0  0  0
   -4.3232   -1.1500    1.2536 C   0  0  0  0  0  0  0  0  0  0  0  0
   -5.5931   -0.6488    1.9806 C   0  0  0  0  0  0  0  0  0  0  0  0
   -5.4560   -0.6218    3.5054 C   0  0  0  0  0  0  0  0  0  0  0  0
   -4.5903   -1.7669    4.0137 C   0  0  0  0  0  0  0  0  0  0  0  0
   -3.1732   -1.7184    3.4387 C   0  0  0  0  0  0  0  0  0  0  0  0
   -3.0749   -0.9381    2.1214 C   0  0  0  0  0  0  0  0  0  0  0  0
   -5.0514   -1.5530   -1.0877 C   0  0  0  0  0  0  0  0  0  0  0  0
   -5.2421   -1.2768   -2.4406 C   0  0  0  0  0  0  0  0  0  0  0  0
   -6.0113   -2.1939   -3.3833 C   0  0  0  0  0  0  0  0  0  0  0  0
   -5.3867   -3.5930   -3.5430 C   0  0  0  0  0  0  0  0  0  0  0  0
   -5.8460   -4.6307   -2.5212 C   0  0  0  0  0  0  0  0  0  0  0  0
   -7.3620   -4.6637   -2.3777 C   0  0  0  0  0  0  0  0  0  0  0  0
   -7.9329   -3.2895   -2.0518 C   0  0  0  0  0  0  0  0  0  0  0  0
   -7.5207   -2.2442   -3.0850 C   0  0  0  0  0  0  0  0  0  0  0  0
   -4.7190   -0.0779   -2.9314 C   0  0  0  0  0  0  0  0  0  0  0  0
   -4.0022    0.8234   -2.1168 C   0  0  0  0  0  0  0  0  0  0  0  0
   -3.5187    2.1352   -2.7480 C   0  0  0  0  0  0  0  0  0  0  0  0
   -4.7017    3.0311   -3.1634 C   0  0  0  0  0  0  0  0  0  0  0  0
   -4.2152    4.3513   -3.7602 C   0  0  0  0  0  0  0  0  0  0  0  0
   -3.2523    4.1254   -4.9225 C   0  0  0  0  0  0  0  0  0  0  0  0
   -2.0829    3.2296   -4.5235 C   0  0  0  0  0  0  0  0  0  0  0  0
   -2.5657    1.9038   -3.9368 C   0  0  0  0  0  0  0  0  0  0  0  0
   -3.6328    2.2800    0.9979 C   0  0  0  0  0  0  0  0  0  0  0  0
   -2.9061    3.0789    1.8805 C   0  0  0  0  0  0  0  0  0  0  0  0
   -1.4858    3.0912    1.8299 C   0  0  0  0  0  0  0  0  0  0  0  0
   -0.8377    3.8245    2.8577 C   0  0  0  0  0  0  0  0  0  0  0  0
   -1.5369    4.5607    3.8182 C   0  0  0  0  0  0  0  0  0  0  0  0
   -2.9212    4.5766    3.7999 C   0  0  0  0  0  0  0  0  0  0  0  0
   -3.6009    3.8334    2.8404 C   0  0  0  0  0  0  0  0  0  0  0  0
   -1.2680   -2.0046   -1.1382 H   0  0  0  0  0  0  0  0  0  0  0  0
    3.7115    1.1061   -1.7377 H   0  0  0  0  0  0  0  0  0  0  0  0
    6.6679    0.3829   -1.9436 H   0  0  0  0  0  0  0  0  0  0  0  0
    6.0600    1.7124   -0.9806 H   0  0  0  0  0  0  0  0  0  0  0  0
    5.4457    2.9891   -2.8485 H   0  0  0  0  0  0  0  0  0  0  0  0
    6.8922    2.1701   -3.4073 H   0  0  0  0  0  0  0  0  0  0  0  0
    4.0444    1.8593   -4.2715 H   0  0  0  0  0  0  0  0  0  0  0  0
    5.5177    1.7449   -5.2216 H   0  0  0  0  0  0  0  0  0  0  0  0
    5.9643   -0.5162   -4.2463 H   0  0  0  0  0  0  0  0  0  0  0  0
    4.4248   -0.4652   -5.0942 H   0  0  0  0  0  0  0  0  0  0  0  0
    4.5041   -1.6006   -2.7699 H   0  0  0  0  0  0  0  0  0  0  0  0
    3.1621   -0.5581   -3.1355 H   0  0  0  0  0  0  0  0  0  0  0  0
    5.8842   -1.8616   -1.0455 H   0  0  0  0  0  0  0  0  0  0  0  0
    5.9893   -3.9096    2.1399 H   0  0  0  0  0  0  0  0  0  0  0  0
    5.8231   -4.2628   -0.8949 H   0  0  0  0  0  0  0  0  0  0  0  0
    4.6799   -4.8777    0.2912 H   0  0  0  0  0  0  0  0  0  0  0  0
    6.3957   -6.3172    1.2884 H   0  0  0  0  0  0  0  0  0  0  0  0
    6.3179   -6.6082   -0.4474 H   0  0  0  0  0  0  0  0  0  0  0  0
    8.6709   -6.4499    0.3798 H   0  0  0  0  0  0  0  0  0  0  0  0
    8.3068   -5.2260   -0.8344 H   0  0  0  0  0  0  0  0  0  0  0  0
    9.5576   -4.1994    1.0086 H   0  0  0  0  0  0  0  0  0  0  0  0
    8.4113   -4.8192    2.1942 H   0  0  0  0  0  0  0  0  0  0  0  0
    7.9417   -2.4531    1.7587 H   0  0  0  0  0  0  0  0  0  0  0  0
    7.8680   -2.7410    0.0255 H   0  0  0  0  0  0  0  0  0  0  0  0
    4.5392   -2.3733    2.9799 H   0  0  0  0  0  0  0  0  0  0  0  0
    2.3756    0.6897    2.9779 H   0  0  0  0  0  0  0  0  0  0  0  0
    4.2112    1.1951    4.2238 H   0  0  0  0  0  0  0  0  0  0  0  0
    4.7880   -0.4434    4.3932 H   0  0  0  0  0  0  0  0  0  0  0  0
    3.3793   -0.9611    6.1509 H   0  0  0  0  0  0  0  0  0  0  0  0
    3.6578    0.7496    6.4426 H   0  0  0  0  0  0  0  0  0  0  0  0
    1.5125    1.2965    5.2931 H   0  0  0  0  0  0  0  0  0  0  0  0
    1.2503    0.2332    6.6665 H   0  0  0  0  0  0  0  0  0  0  0  0
    0.6303   -1.5746    5.3392 H   0  0  0  0  0  0  0  0  0  0  0  0
    0.1157   -0.2517    4.3092 H   0  0  0  0  0  0  0  0  0  0  0  0
    1.2834   -1.5818    2.7878 H   0  0  0  0  0  0  0  0  0  0  0  0
    2.4088   -2.1711    3.9969 H   0  0  0  0  0  0  0  0  0  0  0  0
    4.5854    2.5825    0.7347 H   0  0  0  0  0  0  0  0  0  0  0  0
   -0.3716    4.9971    0.1793 H   0  0  0  0  0  0  0  0  0  0  0  0
    0.8662    7.0902    0.0690 H   0  0  0  0  0  0  0  0  0  0  0  0
    3.3412    7.0999    0.2622 H   0  0  0  0  0  0  0  0  0  0  0  0
    4.5565    4.9816    0.5347 H   0  0  0  0  0  0  0  0  0  0  0  0
   -4.4103   -2.2478    1.2105 H   0  0  0  0  0  0  0  0  0  0  0  0
   -6.4312   -1.3048    1.7088 H   0  0  0  0  0  0  0  0  0  0  0  0
   -5.8845    0.3517    1.6418 H   0  0  0  0  0  0  0  0  0  0  0  0
   -5.0133    0.3331    3.8156 H   0  0  0  0  0  0  0  0  0  0  0  0
   -6.4507   -0.6678    3.9630 H   0  0  0  0  0  0  0  0  0  0  0  0
   -5.0597   -2.7196    3.7373 H   0  0  0  0  0  0  0  0  0  0  0  0
   -4.5439   -1.7508    5.1085 H   0  0  0  0  0  0  0  0  0  0  0  0
   -2.4929   -1.2617    4.1679 H   0  0  0  0  0  0  0  0  0  0  0  0
   -2.8161   -2.7448    3.2903 H   0  0  0  0  0  0  0  0  0  0  0  0
   -2.1685   -1.2469    1.5996 H   0  0  0  0  0  0  0  0  0  0  0  0
   -2.9485    0.1135    2.3835 H   0  0  0  0  0  0  0  0  0  0  0  0
   -5.4837   -2.4576   -0.6700 H   0  0  0  0  0  0  0  0  0  0  0  0
   -5.9268   -1.7315   -4.3782 H   0  0  0  0  0  0  0  0  0  0  0  0
   -4.2914   -3.5329   -3.5410 H   0  0  0  0  0  0  0  0  0  0  0  0
   -5.6680   -3.9707   -4.5359 H   0  0  0  0  0  0  0  0  0  0  0  0
   -5.3847   -4.4383   -1.5478 H   0  0  0  0  0  0  0  0  0  0  0  0
   -5.4914   -5.6209   -2.8314 H   0  0  0  0  0  0  0  0  0  0  0  0
   -7.8078   -5.0313   -3.3103 H   0  0  0  0  0  0  0  0  0  0  0  0
   -7.6415   -5.3742   -1.5915 H   0  0  0  0  0  0  0  0  0  0  0  0
   -7.6165   -2.9816   -1.0503 H   0  0  0  0  0  0  0  0  0  0  0  0
   -9.0272   -3.3514   -2.0199 H   0  0  0  0  0  0  0  0  0  0  0  0
   -7.8911   -1.2579   -2.7794 H   0  0  0  0  0  0  0  0  0  0  0  0
   -8.0399   -2.4876   -4.0223 H   0  0  0  0  0  0  0  0  0  0  0  0
   -4.8832    0.1738   -3.9781 H   0  0  0  0  0  0  0  0  0  0  0  0
   -2.9523    2.7145   -2.0125 H   0  0  0  0  0  0  0  0  0  0  0  0
   -5.3379    3.2397   -2.2942 H   0  0  0  0  0  0  0  0  0  0  0  0
   -5.3355    2.5227   -3.9006 H   0  0  0  0  0  0  0  0  0  0  0  0
   -3.7153    4.9408   -2.9816 H   0  0  0  0  0  0  0  0  0  0  0  0
   -5.0744    4.9391   -4.1024 H   0  0  0  0  0  0  0  0  0  0  0  0
   -2.8726    5.0896   -5.2787 H   0  0  0  0  0  0  0  0  0  0  0  0
   -3.7935    3.6664   -5.7591 H   0  0  0  0  0  0  0  0  0  0  0  0
   -1.4576    3.7492   -3.7869 H   0  0  0  0  0  0  0  0  0  0  0  0
   -1.4517    3.0366   -5.3983 H   0  0  0  0  0  0  0  0  0  0  0  0
   -1.6995    1.3113   -3.6200 H   0  0  0  0  0  0  0  0  0  0  0  0
   -3.0603    1.3307   -4.7304 H   0  0  0  0  0  0  0  0  0  0  0  0
   -4.7205    2.2750    1.0390 H   0  0  0  0  0  0  0  0  0  0  0  0
    0.2479    3.8217    2.9378 H   0  0  0  0  0  0  0  0  0  0  0  0
   -0.9913    5.1126    4.5790 H   0  0  0  0  0  0  0  0  0  0  0  0
   -3.4730    5.1445    4.5431 H   0  0  0  0  0  0  0  0  0  0  0  0
   -4.6891    3.8292    2.8637 H   0  0  0  0  0  0  0  0  0  0  0  0
  1  2  2  0  0  0  0
  2  3  1  0  0  0  0
  2  4  1  0  0  0  0
  4  5  1  0  0  0  0
  5 38  2  0  0  0  0
  5  6  1  0  0  0  0
  6 31  2  0  0  0  0
  6  7  1  0  0  0  0
  7 24  2  0  0  0  0
  8 15  2  0  0  0  0
  8  7  1  0  0  0  0
  9  8  1  0  0  0  0
 10  9  1  0  0  0  0
 10 77  1  0  0  0  0
 11 78  1  0  0  0  0
 11 10  1  0  0  0  0
 12 80  1  0  0  0  0
 12 13  1  0  0  0  0
 12 11  1  0  0  0  0
 13 14  1  0  0  0  0
 14 84  1  0  0  0  0
 14  9  1  0  0  0  0
 15 16  1  0  0  0  0
 16 17  1  0  0  0  0
 16 23  2  0  0  0  0
 17 87  1  0  0  0  0
 18 89  1  0  0  0  0
 18 19  1  0  0  0  0
 18 17  1  0  0  0  0
 19 90  1  0  0  0  0
 20 19  1  0  0  0  0
 20 92  1  0  0  0  0
 20 21  1  0  0  0  0
 21 95  1  0  0  0  0
 22 17  1  0  0  0  0
 22 21  1  0  0  0  0
 22 96  1  0  0  0  0
 23 98  1  0  0  0  0
 24 23  1  0  0  0  0
 24 25  1  0  0  0  0
 25 30  1  0  0  0  0
 25 26  1  0  0  0  0
 26101  1  0  0  0  0
 26 27  1  0  0  0  0
 27102  1  0  0  0  0
 27103  1  0  0  0  0
 28 27  1  0  0  0  0
 28105  1  0  0  0  0
 29106  1  0  0  0  0
 29 28  1  0  0  0  0
 30109  1  0  0  0  0
 30 29  1  0  0  0  0
 31110  1  0  0  0  0
 32 31  1  0  0  0  0
 33 32  2  0  0  0  0
 33 38  1  0  0  0  0
 34 33  1  0  0  0  0
 35 34  2  0  0  0  0
 35 36  1  0  0  0  0
 36 37  2  0  0  0  0
 37114  1  0  0  0  0
 37 32  1  0  0  0  0
 38 39  1  0  0  0  0
 39 69  2  0  0  0  0
 40 42  2  0  0  0  0
 40 39  1  0  0  0  0
 41  2  1  0  0  0  0
 41 40  1  0  0  0  0
 42 67  1  0  0  0  0
 43 44  1  0  0  0  0
 43 42  1  0  0  0  0
 44 45  1  0  0  0  0
 45 46  1  0  0  0  0
 45 50  1  0  0  0  0
 46 47  1  0  0  0  0
 47118  1  0  0  0  0
 47119  1  0  0  0  0
 47 48  1  0  0  0  0
 48121  1  0  0  0  0
 49 48  1  0  0  0  0
 49122  1  0  0  0  0
 50125  1  0  0  0  0
 50 49  1  0  0  0  0
 51126  1  0  0  0  0
 51 44  2  0  0  0  0
 52 51  1  0  0  0  0
 53 58  1  0  0  0  0
 53 52  1  0  0  0  0
 54128  1  0  0  0  0
 54 53  1  0  0  0  0
 54 55  1  0  0  0  0
 55 56  1  0  0  0  0
 55130  1  0  0  0  0
 56 57  1  0  0  0  0
 56133  1  0  0  0  0
 57135  1  0  0  0  0
 57134  1  0  0  0  0
 58136  1  0  0  0  0
 58 57  1  0  0  0  0
 59 52  2  0  0  0  0
 59 60  1  0  0  0  0
 60 43  2  0  0  0  0
 61 60  1  0  0  0  0
 61139  1  0  0  0  0
 62 61  1  0  0  0  0
 62140  1  0  0  0  0
 63 62  1  0  0  0  0
 63142  1  0  0  0  0
 64 65  1  0  0  0  0
 64 63  1  0  0  0  0
 65 66  1  0  0  0  0
 65146  1  0  0  0  0
 66148  1  0  0  0  0
 66 61  1  0  0  0  0
 67150  1  0  0  0  0
 67 68  2  0  0  0  0
 68 73  1  0  0  0  0
 69 68  1  0  0  0  0
 69 70  1  0  0  0  0
 70151  1  0  0  0  0
 70 71  2  0  0  0  0
 71152  1  0  0  0  0
 72 71  1  0  0  0  0
 72153  1  0  0  0  0
 73154  1  0  0  0  0
 73 72  2  0  0  0  0
 74  3  1  0  0  0  0
 75  9  1  0  0  0  0
 76 10  1  0  0  0  0
 79 11  1  0  0  0  0
 81 12  1  0  0  0  0
 82 13  1  0  0  0  0
 83 13  1  0  0  0  0
 85 14  1  0  0  0  0
 86 15  1  0  0  0  0
 88 18  1  0  0  0  0
 91 19  1  0  0  0  0
 93 20  1  0  0  0  0
 94 21  1  0  0  0  0
 97 22  1  0  0  0  0
 99 25  1  0  0  0  0
100 26  1  0  0  0  0
104 28  1  0  0  0  0
107 29  1  0  0  0  0
108 30  1  0  0  0  0
111 34  1  0  0  0  0
112 35  1  0  0  0  0
113 36  1  0  0  0  0
115 45  1  0  0  0  0
116 46  1  0  0  0  0
117 46  1  0  0  0  0
120 48  1  0  0  0  0
123 49  1  0  0  0  0
124 50  1  0  0  0  0
127 53  1  0  0  0  0
129 54  1  0  0  0  0
131 55  1  0  0  0  0
132 56  1  0  0  0  0
137 58  1  0  0  0  0
138 59  1  0  0  0  0
141 62  1  0  0  0  0
143 63  1  0  0  0  0
144 64  1  0  0  0  0
145 64  1  0  0  0  0
147 65  1  0  0  0  0
149 66  1  0  0  0  0
M  END
$$$$
