O=P1(O)OC2=C(C3=CC(COC)=CC=C3)C=C4C(CCCC4)=C2C5=C(O1)C(C6=CC=CC(COC)=C6)=CC7=C5CCCC7
 OpenBabel09032010383D

 80 86  0  0  0  0  0  0  0  0999 V2000
    0.2107    2.9976    1.3871 O   0  0  0  0  0  0  0  0  0  0  0  0
   -0.4187    2.0958    0.3700 P   0  0  0  0  0  0  0  0  0  0  0  0
   -1.3709    2.9228   -0.6312 O   0  0  0  0  0  0  0  0  0  0  0  0
   -1.4086    0.9823    0.9824 O   0  0  0  0  0  0  0  0  0  0  0  0
   -1.9070    0.0087    0.1466 C   0  0  0  0  0  0  0  0  0  0  0  0
   -3.2857    0.0501   -0.1359 C   0  0  0  0  0  0  0  0  0  0  0  0
   -4.1630    1.1024    0.4055 C   0  0  0  0  0  0  0  0  0  0  0  0
   -4.3475    1.2508    1.7896 C   0  0  0  0  0  0  0  0  0  0  0  0
   -5.1334    2.2872    2.3202 C   0  0  0  0  0  0  0  0  0  0  0  0
   -5.3233    2.4283    3.8122 C   0  0  0  0  0  0  0  0  0  0  0  0
   -4.1492    2.0911    4.5533 O   0  0  0  0  0  0  0  0  0  0  0  0
   -3.1727    3.1258    4.5415 C   0  0  0  0  0  0  0  0  0  0  0  0
   -5.7785    3.1640    1.4397 C   0  0  0  0  0  0  0  0  0  0  0  0
   -5.6187    3.0240    0.0617 C   0  0  0  0  0  0  0  0  0  0  0  0
   -4.8148    2.0040   -0.4499 C   0  0  0  0  0  0  0  0  0  0  0  0
   -3.8021   -0.9307   -0.9851 C   0  0  0  0  0  0  0  0  0  0  0  0
   -2.9748   -1.8997   -1.5711 C   0  0  0  0  0  0  0  0  0  0  0  0
   -1.5866   -1.9044   -1.2907 C   0  0  0  0  0  0  0  0  0  0  0  0
   -0.6796   -2.8593   -2.0588 C   0  0  0  0  0  0  0  0  0  0  0  0
   -1.3121   -3.4356   -3.3244 C   0  0  0  0  0  0  0  0  0  0  0  0
   -2.6920   -3.9845   -3.0042 C   0  0  0  0  0  0  0  0  0  0  0  0
   -3.6084   -2.8511   -2.5609 C   0  0  0  0  0  0  0  0  0  0  0  0
   -1.0263   -0.9793   -0.3507 C   0  0  0  0  0  0  0  0  0  0  0  0
    0.3586   -0.9894    0.0458 C   0  0  0  0  0  0  0  0  0  0  0  0
    1.1678    0.1566   -0.1607 C   0  0  0  0  0  0  0  0  0  0  0  0
    0.5811    1.3142   -0.6247 O   0  0  0  0  0  0  0  0  0  0  0  0
    2.5620    0.1653    0.0216 C   0  0  0  0  0  0  0  0  0  0  0  0
    3.3925    1.3379   -0.2846 C   0  0  0  0  0  0  0  0  0  0  0  0
    3.4537    2.4294    0.5923 C   0  0  0  0  0  0  0  0  0  0  0  0
    4.2495    3.5383    0.2990 C   0  0  0  0  0  0  0  0  0  0  0  0
    5.0013    3.5700   -0.8748 C   0  0  0  0  0  0  0  0  0  0  0  0
    4.9665    2.4903   -1.7654 C   0  0  0  0  0  0  0  0  0  0  0  0
    5.7643    2.5202   -3.0450 C   0  0  0  0  0  0  0  0  0  0  0  0
    6.6293    1.3892   -3.1630 O   0  0  0  0  0  0  0  0  0  0  0  0
    7.8090    1.5176   -2.3797 C   0  0  0  0  0  0  0  0  0  0  0  0
    4.1583    1.3825   -1.4608 C   0  0  0  0  0  0  0  0  0  0  0  0
    3.1663   -1.0010    0.4967 C   0  0  0  0  0  0  0  0  0  0  0  0
    2.4065   -2.1258    0.8425 C   0  0  0  0  0  0  0  0  0  0  0  0
    1.0054   -2.1205    0.6356 C   0  0  0  0  0  0  0  0  0  0  0  0
    0.1806   -3.2394    1.2613 C   0  0  0  0  0  0  0  0  0  0  0  0
    0.9513   -4.5458    1.4282 C   0  0  0  0  0  0  0  0  0  0  0  0
    2.2513   -4.2880    2.1722 C   0  0  0  0  0  0  0  0  0  0  0  0
    3.1366   -3.3371    1.3765 C   0  0  0  0  0  0  0  0  0  0  0  0
   -1.9187    3.5512   -0.1277 H   0  0  0  0  0  0  0  0  0  0  0  0
   -3.8556    0.5568    2.4721 H   0  0  0  0  0  0  0  0  0  0  0  0
   -6.1128    1.7334    4.1197 H   0  0  0  0  0  0  0  0  0  0  0  0
   -5.6528    3.4388    4.0825 H   0  0  0  0  0  0  0  0  0  0  0  0
   -2.8233    3.3279    3.5248 H   0  0  0  0  0  0  0  0  0  0  0  0
   -3.5772    4.0386    4.9893 H   0  0  0  0  0  0  0  0  0  0  0  0
   -2.3190    2.7956    5.1396 H   0  0  0  0  0  0  0  0  0  0  0  0
   -6.4108    3.9626    1.8219 H   0  0  0  0  0  0  0  0  0  0  0  0
   -6.1191    3.7105   -0.6167 H   0  0  0  0  0  0  0  0  0  0  0  0
   -4.6866    1.9218   -1.5278 H   0  0  0  0  0  0  0  0  0  0  0  0
   -4.8660   -0.9253   -1.2205 H   0  0  0  0  0  0  0  0  0  0  0  0
    0.2407   -2.3422   -2.3548 H   0  0  0  0  0  0  0  0  0  0  0  0
   -0.4029   -3.6969   -1.4124 H   0  0  0  0  0  0  0  0  0  0  0  0
   -1.3871   -2.6602   -4.0971 H   0  0  0  0  0  0  0  0  0  0  0  0
   -0.6726   -4.2299   -3.7255 H   0  0  0  0  0  0  0  0  0  0  0  0
   -2.6162   -4.7388   -2.2108 H   0  0  0  0  0  0  0  0  0  0  0  0
   -3.1183   -4.4830   -3.8818 H   0  0  0  0  0  0  0  0  0  0  0  0
   -3.9059   -2.2694   -3.4430 H   0  0  0  0  0  0  0  0  0  0  0  0
   -4.5189   -3.2822   -2.1275 H   0  0  0  0  0  0  0  0  0  0  0  0
    2.8737    2.4250    1.5135 H   0  0  0  0  0  0  0  0  0  0  0  0
    4.2761    4.3788    0.9877 H   0  0  0  0  0  0  0  0  0  0  0  0
    5.6122    4.4438   -1.0887 H   0  0  0  0  0  0  0  0  0  0  0  0
    5.0637    2.4881   -3.8873 H   0  0  0  0  0  0  0  0  0  0  0  0
    6.3406    3.4476   -3.1486 H   0  0  0  0  0  0  0  0  0  0  0  0
    8.4284    0.6325   -2.5485 H   0  0  0  0  0  0  0  0  0  0  0  0
    8.3781    2.4014   -2.6837 H   0  0  0  0  0  0  0  0  0  0  0  0
    7.5692    1.5710   -1.3138 H   0  0  0  0  0  0  0  0  0  0  0  0
    4.1263    0.5433   -2.1551 H   0  0  0  0  0  0  0  0  0  0  0  0
    4.2473   -1.0199    0.6333 H   0  0  0  0  0  0  0  0  0  0  0  0
   -0.7322   -3.4558    0.7050 H   0  0  0  0  0  0  0  0  0  0  0  0
   -0.1410   -2.8861    2.2505 H   0  0  0  0  0  0  0  0  0  0  0  0
    1.1622   -4.9888    0.4469 H   0  0  0  0  0  0  0  0  0  0  0  0
    0.3395   -5.2647    1.9846 H   0  0  0  0  0  0  0  0  0  0  0  0
    2.7828   -5.2302    2.3461 H   0  0  0  0  0  0  0  0  0  0  0  0
    2.0321   -3.8567    3.1572 H   0  0  0  0  0  0  0  0  0  0  0  0
    3.5659   -3.8727    0.5203 H   0  0  0  0  0  0  0  0  0  0  0  0
    3.9699   -3.0214    2.0161 H   0  0  0  0  0  0  0  0  0  0  0  0
  2  4  1  0  0  0  0
  2  1  2  0  0  0  0
  3 44  1  0  0  0  0
  3  2  1  0  0  0  0
  5  4  1  0  0  0  0
  6  5  1  0  0  0  0
  6  7  1  0  0  0  0
  7  8  2  0  0  0  0
  8  9  1  0  0  0  0
  8 45  1  0  0  0  0
  9 10  1  0  0  0  0
 10 47  1  0  0  0  0
 10 46  1  0  0  0  0
 10 11  1  0  0  0  0
 12 11  1  0  0  0  0
 12 49  1  0  0  0  0
 12 50  1  0  0  0  0
 13 51  1  0  0  0  0
 13  9  2  0  0  0  0
 14 13  1  0  0  0  0
 15 14  2  0  0  0  0
 15  7  1  0  0  0  0
 16  6  2  0  0  0  0
 17 18  2  0  0  0  0
 17 16  1  0  0  0  0
 18 23  1  0  0  0  0
 19 56  1  0  0  0  0
 19 18  1  0  0  0  0
 20 21  1  0  0  0  0
 20 19  1  0  0  0  0
 21 22  1  0  0  0  0
 21 59  1  0  0  0  0
 22 62  1  0  0  0  0
 22 17  1  0  0  0  0
 23 24  1  0  0  0  0
 23  5  2  0  0  0  0
 24 39  2  0  0  0  0
 25 27  2  0  0  0  0
 25 24  1  0  0  0  0
 26 25  1  0  0  0  0
 26  2  1  0  0  0  0
 27 37  1  0  0  0  0
 28 27  1  0  0  0  0
 28 29  2  0  0  0  0
 29 63  1  0  0  0  0
 30 29  1  0  0  0  0
 30 64  1  0  0  0  0
 31 30  2  0  0  0  0
 32 36  2  0  0  0  0
 32 31  1  0  0  0  0
 33 32  1  0  0  0  0
 34 33  1  0  0  0  0
 34 35  1  0  0  0  0
 35 70  1  0  0  0  0
 36 28  1  0  0  0  0
 37 72  1  0  0  0  0
 37 38  2  0  0  0  0
 38 43  1  0  0  0  0
 39 38  1  0  0  0  0
 39 40  1  0  0  0  0
 40 41  1  0  0  0  0
 40 74  1  0  0  0  0
 41 76  1  0  0  0  0
 41 42  1  0  0  0  0
 42 77  1  0  0  0  0
 42 78  1  0  0  0  0
 43 80  1  0  0  0  0
 43 42  1  0  0  0  0
 48 12  1  0  0  0  0
 52 14  1  0  0  0  0
 53 15  1  0  0  0  0
 54 16  1  0  0  0  0
 55 19  1  0  0  0  0
 57 20  1  0  0  0  0
 58 20  1  0  0  0  0
 60 21  1  0  0  0  0
 61 22  1  0  0  0  0
 65 31  1  0  0  0  0
 66 33  1  0  0  0  0
 67 33  1  0  0  0  0
 68 35  1  0  0  0  0
 69 35  1  0  0  0  0
 71 36  1  0  0  0  0
 73 40  1  0  0  0  0
 75 41  1  0  0  0  0
 79 43  1  0  0  0  0
M  END
$$$$
