O=P1(O)OC2=C(C3=CC(C(F)(F)F)=CC(C(F)(F)F)=C3)C=C4C(CCCC4)=C2C5=C(O1)C(C6=CC(C(F)(F)F)=CC(C(F)(F)F)=C6)=CC7=C5CCCC7
 OpenBabel09032010383D

 78 84  0  0  0  0  0  0  0  0999 V2000
    0.5799   -3.1609    0.8534 O   0  0  0  0  0  0  0  0  0  0  0  0
   -0.0618   -1.8199    1.0330 P   0  0  0  0  0  0  0  0  0  0  0  0
   -0.9374   -1.8090    2.3833 O   0  0  0  0  0  0  0  0  0  0  0  0
   -1.1098   -1.4039   -0.1178 O   0  0  0  0  0  0  0  0  0  0  0  0
   -1.5578   -0.1027   -0.1772 C   0  0  0  0  0  0  0  0  0  0  0  0
   -2.9344    0.1183    0.0218 C   0  0  0  0  0  0  0  0  0  0  0  0
   -3.9024   -0.9717    0.2566 C   0  0  0  0  0  0  0  0  0  0  0  0
   -4.7256   -0.9686    1.3961 C   0  0  0  0  0  0  0  0  0  0  0  0
   -5.6976   -1.9611    1.6074 C   0  0  0  0  0  0  0  0  0  0  0  0
   -6.5757   -1.9227    2.8359 C   0  0  0  0  0  0  0  0  0  0  0  0
   -6.0321   -2.6015    3.8825 F   0  0  0  0  0  0  0  0  0  0  0  0
   -6.8096   -0.6588    3.2864 F   0  0  0  0  0  0  0  0  0  0  0  0
   -7.8034   -2.4749    2.6276 F   0  0  0  0  0  0  0  0  0  0  0  0
   -5.8219   -2.9976    0.6701 C   0  0  0  0  0  0  0  0  0  0  0  0
   -5.0030   -3.0410   -0.4687 C   0  0  0  0  0  0  0  0  0  0  0  0
   -5.1607   -4.1394   -1.4934 C   0  0  0  0  0  0  0  0  0  0  0  0
   -5.9963   -3.7811   -2.5064 F   0  0  0  0  0  0  0  0  0  0  0  0
   -3.9857   -4.4942   -2.0822 F   0  0  0  0  0  0  0  0  0  0  0  0
   -5.6770   -5.2867   -0.9705 F   0  0  0  0  0  0  0  0  0  0  0  0
   -4.0598   -2.0178   -0.6673 C   0  0  0  0  0  0  0  0  0  0  0  0
   -3.3861    1.4428   -0.0114 C   0  0  0  0  0  0  0  0  0  0  0  0
   -2.5075    2.5183   -0.1991 C   0  0  0  0  0  0  0  0  0  0  0  0
   -1.1301    2.2720   -0.3933 C   0  0  0  0  0  0  0  0  0  0  0  0
   -0.1686    3.4543   -0.4615 C   0  0  0  0  0  0  0  0  0  0  0  0
   -0.7471    4.7591    0.0827 C   0  0  0  0  0  0  0  0  0  0  0  0
   -2.1131    5.0108   -0.5322 C   0  0  0  0  0  0  0  0  0  0  0  0
   -3.0812    3.9143   -0.1064 C   0  0  0  0  0  0  0  0  0  0  0  0
   -0.6336    0.9324   -0.4721 C   0  0  0  0  0  0  0  0  0  0  0  0
    0.7341    0.6351   -0.7986 C   0  0  0  0  0  0  0  0  0  0  0  0
    1.5518   -0.0651    0.1234 C   0  0  0  0  0  0  0  0  0  0  0  0
    0.9580   -0.5908    1.2492 O   0  0  0  0  0  0  0  0  0  0  0  0
    2.9424   -0.2303   -0.0290 C   0  0  0  0  0  0  0  0  0  0  0  0
    3.8024   -0.8777    0.9864 C   0  0  0  0  0  0  0  0  0  0  0  0
    4.7232   -1.8785    0.6252 C   0  0  0  0  0  0  0  0  0  0  0  0
    5.5909   -2.4634    1.5649 C   0  0  0  0  0  0  0  0  0  0  0  0
    6.5820   -3.5216    1.1369 C   0  0  0  0  0  0  0  0  0  0  0  0
    7.0411   -3.3381   -0.1328 F   0  0  0  0  0  0  0  0  0  0  0  0
    6.0551   -4.7749    1.1703 F   0  0  0  0  0  0  0  0  0  0  0  0
    7.6918   -3.5604    1.9273 F   0  0  0  0  0  0  0  0  0  0  0  0
    5.5050   -2.0621    2.9062 C   0  0  0  0  0  0  0  0  0  0  0  0
    4.5966   -1.0697    3.3028 C   0  0  0  0  0  0  0  0  0  0  0  0
    4.4891   -0.6423    4.7472 C   0  0  0  0  0  0  0  0  0  0  0  0
    5.5767   -0.9844    5.4925 F   0  0  0  0  0  0  0  0  0  0  0  0
    3.4162   -1.2009    5.3715 F   0  0  0  0  0  0  0  0  0  0  0  0
    4.3490    0.7046    4.8910 F   0  0  0  0  0  0  0  0  0  0  0  0
    3.7595   -0.4868    2.3352 C   0  0  0  0  0  0  0  0  0  0  0  0
    3.5164    0.2723   -1.2027 C   0  0  0  0  0  0  0  0  0  0  0  0
    2.7425    0.8609   -2.2125 C   0  0  0  0  0  0  0  0  0  0  0  0
    1.3528    1.0354   -2.0221 C   0  0  0  0  0  0  0  0  0  0  0  0
    0.5048    1.4585   -3.2167 C   0  0  0  0  0  0  0  0  0  0  0  0
    1.2743    2.2599   -4.2627 C   0  0  0  0  0  0  0  0  0  0  0  0
    2.5368    1.5143   -4.6612 C   0  0  0  0  0  0  0  0  0  0  0  0
    3.4525    1.3480   -3.4554 C   0  0  0  0  0  0  0  0  0  0  0  0
   -0.7373   -2.6102    2.9019 H   0  0  0  0  0  0  0  0  0  0  0  0
   -4.6112   -0.1730    2.1342 H   0  0  0  0  0  0  0  0  0  0  0  0
   -6.5684   -3.7785    0.8268 H   0  0  0  0  0  0  0  0  0  0  0  0
   -3.4390   -2.0353   -1.5647 H   0  0  0  0  0  0  0  0  0  0  0  0
   -4.4464    1.6499    0.1342 H   0  0  0  0  0  0  0  0  0  0  0  0
    0.7386    3.2300    0.1119 H   0  0  0  0  0  0  0  0  0  0  0  0
    0.1235    3.6246   -1.5019 H   0  0  0  0  0  0  0  0  0  0  0  0
   -0.8317    4.7089    1.1756 H   0  0  0  0  0  0  0  0  0  0  0  0
   -0.0686    5.5873   -0.1506 H   0  0  0  0  0  0  0  0  0  0  0  0
   -2.0288    5.0337   -1.6261 H   0  0  0  0  0  0  0  0  0  0  0  0
   -2.4993    5.9873   -0.2193 H   0  0  0  0  0  0  0  0  0  0  0  0
   -3.9857    3.9840   -0.7227 H   0  0  0  0  0  0  0  0  0  0  0  0
   -3.3780    4.0869    0.9363 H   0  0  0  0  0  0  0  0  0  0  0  0
    4.7709   -2.2125   -0.4126 H   0  0  0  0  0  0  0  0  0  0  0  0
    6.1594   -2.5228    3.6483 H   0  0  0  0  0  0  0  0  0  0  0  0
    3.0653    0.2967    2.6440 H   0  0  0  0  0  0  0  0  0  0  0  0
    4.5933    0.1908   -1.3496 H   0  0  0  0  0  0  0  0  0  0  0  0
    0.1231    0.5393   -3.6812 H   0  0  0  0  0  0  0  0  0  0  0  0
   -0.3704    2.0420   -2.9275 H   0  0  0  0  0  0  0  0  0  0  0  0
    1.5332    3.2493   -3.8654 H   0  0  0  0  0  0  0  0  0  0  0  0
    0.6409    2.4191   -5.1426 H   0  0  0  0  0  0  0  0  0  0  0  0
    3.0640    2.0562   -5.4543 H   0  0  0  0  0  0  0  0  0  0  0  0
    2.2709    0.5298   -5.0668 H   0  0  0  0  0  0  0  0  0  0  0  0
    4.2574    0.6529   -3.7239 H   0  0  0  0  0  0  0  0  0  0  0  0
    3.9186    2.3128   -3.2180 H   0  0  0  0  0  0  0  0  0  0  0  0
  1  2  2  0  0  0  0
  2 31  1  0  0  0  0
  2  3  1  0  0  0  0
  3 54  1  0  0  0  0
  4  2  1  0  0  0  0
  5  4  1  0  0  0  0
  5  6  2  0  0  0  0
  6  7  1  0  0  0  0
  7  8  2  0  0  0  0
  8  9  1  0  0  0  0
  8 55  1  0  0  0  0
  9 10  1  0  0  0  0
 10 12  1  0  0  0  0
 10 11  1  0  0  0  0
 13 10  1  0  0  0  0
 14 56  1  0  0  0  0
 14  9  2  0  0  0  0
 15 14  1  0  0  0  0
 16 19  1  0  0  0  0
 16 15  1  0  0  0  0
 17 16  1  0  0  0  0
 18 16  1  0  0  0  0
 20 15  2  0  0  0  0
 20  7  1  0  0  0  0
 21  6  1  0  0  0  0
 21 58  1  0  0  0  0
 22 27  1  0  0  0  0
 22 21  2  0  0  0  0
 23 22  1  0  0  0  0
 24 23  1  0  0  0  0
 24 25  1  0  0  0  0
 24 59  1  0  0  0  0
 25 61  1  0  0  0  0
 26 64  1  0  0  0  0
 26 27  1  0  0  0  0
 26 25  1  0  0  0  0
 27 66  1  0  0  0  0
 28 23  2  0  0  0  0
 28  5  1  0  0  0  0
 29 28  1  0  0  0  0
 29 30  2  0  0  0  0
 30 31  1  0  0  0  0
 32 30  1  0  0  0  0
 32 33  1  0  0  0  0
 33 46  1  0  0  0  0
 34 33  2  0  0  0  0
 34 35  1  0  0  0  0
 35 40  2  0  0  0  0
 36 38  1  0  0  0  0
 36 35  1  0  0  0  0
 36 39  1  0  0  0  0
 37 36  1  0  0  0  0
 40 41  1  0  0  0  0
 40 68  1  0  0  0  0
 41 42  1  0  0  0  0
 42 45  1  0  0  0  0
 42 44  1  0  0  0  0
 42 43  1  0  0  0  0
 46 69  1  0  0  0  0
 46 41  2  0  0  0  0
 47 32  2  0  0  0  0
 48 49  2  0  0  0  0
 48 47  1  0  0  0  0
 49 29  1  0  0  0  0
 50 72  1  0  0  0  0
 50 49  1  0  0  0  0
 51 73  1  0  0  0  0
 51 50  1  0  0  0  0
 52 51  1  0  0  0  0
 52 53  1  0  0  0  0
 53 78  1  0  0  0  0
 53 48  1  0  0  0  0
 57 20  1  0  0  0  0
 60 24  1  0  0  0  0
 62 25  1  0  0  0  0
 63 26  1  0  0  0  0
 65 27  1  0  0  0  0
 67 34  1  0  0  0  0
 70 47  1  0  0  0  0
 71 50  1  0  0  0  0
 74 51  1  0  0  0  0
 75 52  1  0  0  0  0
 76 52  1  0  0  0  0
 77 53  1  0  0  0  0
M  END
$$$$
