O=P1(O)OC2=C(C3=C(OC(F)(F)F)C=CC=C3)C=C4C(C=CC=C4)=C2C5=C(O1)C(C6=CC=CC=C6OC(F)(F)F)=CC7=C5C=CC=C7
 OpenBabel09032010383D

 66 72  0  0  0  0  0  0  0  0999 V2000
    0.5915   -1.0820    3.0766 O   0  0  0  0  0  0  0  0  0  0  0  0
   -0.0827   -0.0899    2.1813 P   0  0  0  0  0  0  0  0  0  0  0  0
   -0.9315    0.9752    3.0385 O   0  0  0  0  0  0  0  0  0  0  0  0
    0.8825    0.8293    1.2781 O   0  0  0  0  0  0  0  0  0  0  0  0
    1.3746    0.2667    0.1205 C   0  0  0  0  0  0  0  0  0  0  0  0
    2.7499   -0.0183    0.0839 C   0  0  0  0  0  0  0  0  0  0  0  0
    3.6448    0.2599    1.2182 C   0  0  0  0  0  0  0  0  0  0  0  0
    4.4000    1.4446    1.3010 C   0  0  0  0  0  0  0  0  0  0  0  0
    4.2694    2.3883    0.3153 O   0  0  0  0  0  0  0  0  0  0  0  0
    5.4549    2.5086   -0.4609 C   0  0  0  0  0  0  0  0  0  0  0  0
    5.1702    3.2179   -1.5763 F   0  0  0  0  0  0  0  0  0  0  0  0
    6.4131    3.1728    0.2214 F   0  0  0  0  0  0  0  0  0  0  0  0
    5.9319    1.3031   -0.8427 F   0  0  0  0  0  0  0  0  0  0  0  0
    5.2133    1.7022    2.4098 C   0  0  0  0  0  0  0  0  0  0  0  0
    5.3224    0.7565    3.4275 C   0  0  0  0  0  0  0  0  0  0  0  0
    4.6097   -0.4366    3.3460 C   0  0  0  0  0  0  0  0  0  0  0  0
    3.7769   -0.6814    2.2518 C   0  0  0  0  0  0  0  0  0  0  0  0
    3.2681   -0.5867   -1.0798 C   0  0  0  0  0  0  0  0  0  0  0  0
    2.4526   -0.8822   -2.1747 C   0  0  0  0  0  0  0  0  0  0  0  0
    1.0639   -0.5856   -2.1316 C   0  0  0  0  0  0  0  0  0  0  0  0
    0.3008   -1.0119   -3.2490 C   0  0  0  0  0  0  0  0  0  0  0  0
    0.8775   -1.6233   -4.3660 C   0  0  0  0  0  0  0  0  0  0  0  0
    2.2434   -1.8521   -4.3988 C   0  0  0  0  0  0  0  0  0  0  0  0
    3.0240   -1.4908   -3.3052 C   0  0  0  0  0  0  0  0  0  0  0  0
    0.4950    0.0621   -0.9739 C   0  0  0  0  0  0  0  0  0  0  0  0
   -0.8857    0.5009   -0.8920 C   0  0  0  0  0  0  0  0  0  0  0  0
   -1.7056    0.0765    0.1834 C   0  0  0  0  0  0  0  0  0  0  0  0
   -1.1709   -0.7161    1.1748 O   0  0  0  0  0  0  0  0  0  0  0  0
   -3.0834    0.3472    0.2764 C   0  0  0  0  0  0  0  0  0  0  0  0
   -3.9121   -0.1481    1.3918 C   0  0  0  0  0  0  0  0  0  0  0  0
   -4.4157    0.7612    2.3392 C   0  0  0  0  0  0  0  0  0  0  0  0
   -5.2081    0.3271    3.4033 C   0  0  0  0  0  0  0  0  0  0  0  0
   -5.5191   -1.0235    3.5328 C   0  0  0  0  0  0  0  0  0  0  0  0
   -5.0323   -1.9444    2.6056 C   0  0  0  0  0  0  0  0  0  0  0  0
   -4.2158   -1.5146    1.5532 C   0  0  0  0  0  0  0  0  0  0  0  0
   -3.7518   -2.3903    0.6063 O   0  0  0  0  0  0  0  0  0  0  0  0
   -3.0115   -3.4746    1.1522 C   0  0  0  0  0  0  0  0  0  0  0  0
   -3.8495   -4.4581    1.5488 F   0  0  0  0  0  0  0  0  0  0  0  0
   -2.2030   -3.9759    0.1926 F   0  0  0  0  0  0  0  0  0  0  0  0
   -2.2462   -3.0979    2.1994 F   0  0  0  0  0  0  0  0  0  0  0  0
   -3.6673    1.1168   -0.7306 C   0  0  0  0  0  0  0  0  0  0  0  0
   -2.9089    1.6346   -1.7837 C   0  0  0  0  0  0  0  0  0  0  0  0
   -1.5171    1.3577   -1.8670 C   0  0  0  0  0  0  0  0  0  0  0  0
   -0.8134    2.0074   -2.9133 C   0  0  0  0  0  0  0  0  0  0  0  0
   -1.4488    2.8182   -3.8581 C   0  0  0  0  0  0  0  0  0  0  0  0
   -2.8163    3.0270   -3.7798 C   0  0  0  0  0  0  0  0  0  0  0  0
   -3.5394    2.4443   -2.7437 C   0  0  0  0  0  0  0  0  0  0  0  0
   -1.2964    0.5403    3.8305 H   0  0  0  0  0  0  0  0  0  0  0  0
    5.7551    2.6404    2.4968 H   0  0  0  0  0  0  0  0  0  0  0  0
    5.9555    0.9535    4.2888 H   0  0  0  0  0  0  0  0  0  0  0  0
    4.6842   -1.1750    4.1404 H   0  0  0  0  0  0  0  0  0  0  0  0
    3.2151   -1.6136    2.2185 H   0  0  0  0  0  0  0  0  0  0  0  0
    4.3320   -0.8203   -1.1200 H   0  0  0  0  0  0  0  0  0  0  0  0
   -0.7799   -0.8822   -3.2615 H   0  0  0  0  0  0  0  0  0  0  0  0
    0.2533   -1.9203   -5.2049 H   0  0  0  0  0  0  0  0  0  0  0  0
    2.7000   -2.3266   -5.2630 H   0  0  0  0  0  0  0  0  0  0  0  0
    4.0915   -1.7017   -3.3382 H   0  0  0  0  0  0  0  0  0  0  0  0
   -4.1840    1.8219    2.2516 H   0  0  0  0  0  0  0  0  0  0  0  0
   -5.5900    1.0468    4.1232 H   0  0  0  0  0  0  0  0  0  0  0  0
   -6.1513   -1.3596    4.3513 H   0  0  0  0  0  0  0  0  0  0  0  0
   -5.3148   -2.9889    2.7087 H   0  0  0  0  0  0  0  0  0  0  0  0
   -4.7351    1.3282   -0.6785 H   0  0  0  0  0  0  0  0  0  0  0  0
    0.2662    1.8986   -3.0025 H   0  0  0  0  0  0  0  0  0  0  0  0
   -0.8693    3.2868   -4.6491 H   0  0  0  0  0  0  0  0  0  0  0  0
   -3.3179    3.6557   -4.5102 H   0  0  0  0  0  0  0  0  0  0  0  0
   -4.6084    2.6409   -2.6842 H   0  0  0  0  0  0  0  0  0  0  0  0
  2  3  1  0  0  0  0
  2  1  2  0  0  0  0
  3 48  1  0  0  0  0
  4  2  1  0  0  0  0
  5  4  1  0  0  0  0
  6  5  1  0  0  0  0
  6  7  1  0  0  0  0
  7  8  2  0  0  0  0
  7 17  1  0  0  0  0
  8 14  1  0  0  0  0
  9  8  1  0  0  0  0
 10 12  1  0  0  0  0
 10  9  1  0  0  0  0
 11 10  1  0  0  0  0
 13 10  1  0  0  0  0
 14 49  1  0  0  0  0
 14 15  2  0  0  0  0
 15 50  1  0  0  0  0
 16 15  1  0  0  0  0
 16 51  1  0  0  0  0
 17 16  2  0  0  0  0
 18  6  2  0  0  0  0
 19 20  1  0  0  0  0
 19 18  1  0  0  0  0
 20 25  1  0  0  0  0
 21 20  2  0  0  0  0
 22 21  1  0  0  0  0
 23 22  2  0  0  0  0
 23 24  1  0  0  0  0
 24 19  2  0  0  0  0
 25 26  1  0  0  0  0
 25  5  2  0  0  0  0
 26 27  2  0  0  0  0
 27 29  1  0  0  0  0
 27 28  1  0  0  0  0
 28  2  1  0  0  0  0
 29 30  1  0  0  0  0
 30 35  2  0  0  0  0
 30 31  1  0  0  0  0
 31 32  2  0  0  0  0
 32 33  1  0  0  0  0
 32 59  1  0  0  0  0
 33 60  1  0  0  0  0
 34 61  1  0  0  0  0
 34 33  2  0  0  0  0
 35 34  1  0  0  0  0
 36 37  1  0  0  0  0
 36 35  1  0  0  0  0
 37 38  1  0  0  0  0
 37 40  1  0  0  0  0
 39 37  1  0  0  0  0
 41 62  1  0  0  0  0
 41 29  2  0  0  0  0
 42 41  1  0  0  0  0
 43 42  1  0  0  0  0
 43 26  1  0  0  0  0
 44 43  2  0  0  0  0
 45 46  2  0  0  0  0
 45 44  1  0  0  0  0
 46 47  1  0  0  0  0
 47 66  1  0  0  0  0
 47 42  2  0  0  0  0
 52 17  1  0  0  0  0
 53 18  1  0  0  0  0
 54 21  1  0  0  0  0
 55 22  1  0  0  0  0
 56 23  1  0  0  0  0
 57 24  1  0  0  0  0
 58 31  1  0  0  0  0
 63 44  1  0  0  0  0
 64 45  1  0  0  0  0
 65 46  1  0  0  0  0
M  END
$$$$
