O=P1(O)OC2=C(C3=C(C=CC=C4)C4=C(C5=CC(C=CC=C6)=C6C=C5)C7=C3C=CC=C7)C=C8C(C=CC=C8)=[C@]2[C@]9=C(O1)C(C%10=C(C=CC=C%11)C%11=C(C%12=CC=C(C=CC=C%13)C%13=C%12)C%14=C%10C=CC=C%14)=CC%15=C9C=CC=C%15
 OpenBabel09032010373D

114128  0  0  0  0  0  0  0  0999 V2000
    0.3116    1.0970   -0.5271 O   0  0  0  0  0  0  0  0  0  0  0  0
   -0.0802   -0.2637   -0.0482 P   0  0  0  0  0  0  0  0  0  0  0  0
   -0.6791   -1.1530   -1.2461 O   0  0  0  0  0  0  0  0  0  0  0  0
   -1.2517   -0.2817    1.0573 O   0  0  0  0  0  0  0  0  0  0  0  0
   -1.5990   -1.4717    1.6556 C   0  0  0  0  0  0  0  0  0  0  0  0
   -2.9153   -1.9205    1.4309 C   0  0  0  0  0  0  0  0  0  0  0  0
   -3.8809   -1.1498    0.6020 C   0  0  0  0  0  0  0  0  0  0  0  0
   -4.1001   -1.5183   -0.7615 C   0  0  0  0  0  0  0  0  0  0  0  0
   -3.4395   -2.6178   -1.3725 C   0  0  0  0  0  0  0  0  0  0  0  0
   -3.6414   -2.9717   -2.7056 C   0  0  0  0  0  0  0  0  0  0  0  0
   -4.5180   -2.2351   -3.4768 C   0  0  0  0  0  0  0  0  0  0  0  0
   -5.1839   -1.1514   -2.9072 C   0  0  0  0  0  0  0  0  0  0  0  0
   -5.0007   -0.7651   -1.5522 C   0  0  0  0  0  0  0  0  0  0  0  0
   -5.6863    0.3476   -0.9752 C   0  0  0  0  0  0  0  0  0  0  0  0
   -6.6221    1.1410   -1.8069 C   0  0  0  0  0  0  0  0  0  0  0  0
   -6.1664    2.2606   -2.5228 C   0  0  0  0  0  0  0  0  0  0  0  0
   -7.0382    3.0221   -3.3185 C   0  0  0  0  0  0  0  0  0  0  0  0
   -6.5844    4.1410   -4.0349 C   0  0  0  0  0  0  0  0  0  0  0  0
   -7.4621    4.8877   -4.8221 C   0  0  0  0  0  0  0  0  0  0  0  0
   -8.8036    4.5261   -4.9036 C   0  0  0  0  0  0  0  0  0  0  0  0
   -9.2702    3.4163   -4.1970 C   0  0  0  0  0  0  0  0  0  0  0  0
   -8.4003    2.6547   -3.4002 C   0  0  0  0  0  0  0  0  0  0  0  0
   -8.8543    1.5373   -2.6835 C   0  0  0  0  0  0  0  0  0  0  0  0
   -7.9757    0.7895   -1.8960 C   0  0  0  0  0  0  0  0  0  0  0  0
   -5.4786    0.7080    0.3912 C   0  0  0  0  0  0  0  0  0  0  0  0
   -4.5769   -0.0428    1.1822 C   0  0  0  0  0  0  0  0  0  0  0  0
   -4.4022    0.3442    2.5386 C   0  0  0  0  0  0  0  0  0  0  0  0
   -5.0726    1.4266    3.1062 C   0  0  0  0  0  0  0  0  0  0  0  0
   -5.9485    2.1611    2.3322 C   0  0  0  0  0  0  0  0  0  0  0  0
   -6.1465    1.8049    0.9991 C   0  0  0  0  0  0  0  0  0  0  0  0
   -3.3195   -3.1115    2.0366 C   0  0  0  0  0  0  0  0  0  0  0  0
   -2.4358   -3.8633    2.8130 C   0  0  0  0  0  0  0  0  0  0  0  0
   -1.1154   -3.3937    3.0499 C   0  0  0  0  0  0  0  0  0  0  0  0
   -0.2634   -4.2644    3.7761 C   0  0  0  0  0  0  0  0  0  0  0  0
   -0.6997   -5.4881    4.2916 C   0  0  0  0  0  0  0  0  0  0  0  0
   -2.0071   -5.8961    4.0828 C   0  0  0  0  0  0  0  0  0  0  0  0
   -2.8674   -5.0905    3.3431 C   0  0  0  0  0  0  0  0  0  0  0  0
   -0.6878   -2.1197    2.5242 C   0  0  0  0  0  0  0  0  0  0  0  0
    0.5716   -1.4867    2.8690 C   0  0  0  0  0  0  0  0  0  0  0  0
    1.4542   -1.0449    1.8532 C   0  0  0  0  0  0  0  0  0  0  0  0
    1.0943   -1.1954    0.5343 O   0  0  0  0  0  0  0  0  0  0  0  0
    2.7435   -0.5418    2.1046 C   0  0  0  0  0  0  0  0  0  0  0  0
    3.6599   -0.1334    1.0088 C   0  0  0  0  0  0  0  0  0  0  0  0
    3.7320    1.2429    0.6278 C   0  0  0  0  0  0  0  0  0  0  0  0
    2.9540    2.2528    1.2564 C   0  0  0  0  0  0  0  0  0  0  0  0
    3.0231    3.5952    0.8873 C   0  0  0  0  0  0  0  0  0  0  0  0
    3.8777    3.9752   -0.1281 C   0  0  0  0  0  0  0  0  0  0  0  0
    4.6509    3.0083   -0.7685 C   0  0  0  0  0  0  0  0  0  0  0  0
    4.6013    1.6319   -0.4187 C   0  0  0  0  0  0  0  0  0  0  0  0
    5.3882    0.6435   -1.0860 C   0  0  0  0  0  0  0  0  0  0  0  0
    6.2729    1.0467   -2.2047 C   0  0  0  0  0  0  0  0  0  0  0  0
    5.7858    1.0810   -3.5183 C   0  0  0  0  0  0  0  0  0  0  0  0
    6.6158    1.4600   -4.5750 C   0  0  0  0  0  0  0  0  0  0  0  0
    7.9539    1.8123   -4.3440 C   0  0  0  0  0  0  0  0  0  0  0  0
    8.8018    2.1937   -5.3965 C   0  0  0  0  0  0  0  0  0  0  0  0
   10.1316    2.5407   -5.1520 C   0  0  0  0  0  0  0  0  0  0  0  0
   10.6294    2.5109   -3.8527 C   0  0  0  0  0  0  0  0  0  0  0  0
    9.7994    2.1347   -2.7953 C   0  0  0  0  0  0  0  0  0  0  0  0
    8.4597    1.7825   -3.0246 C   0  0  0  0  0  0  0  0  0  0  0  0
    7.6121    1.4007   -1.9710 C   0  0  0  0  0  0  0  0  0  0  0  0
    5.3250   -0.7301   -0.6973 C   0  0  0  0  0  0  0  0  0  0  0  0
    4.4621   -1.1193    0.3546 C   0  0  0  0  0  0  0  0  0  0  0  0
    4.4317   -2.4930    0.7176 C   0  0  0  0  0  0  0  0  0  0  0  0
    5.2095   -3.4573    0.0783 C   0  0  0  0  0  0  0  0  0  0  0  0
    6.0479   -3.0778   -0.9513 C   0  0  0  0  0  0  0  0  0  0  0  0
    6.1017   -1.7375   -1.3305 C   0  0  0  0  0  0  0  0  0  0  0  0
    3.1632   -0.4338    3.4320 C   0  0  0  0  0  0  0  0  0  0  0  0
    2.3159   -0.7699    4.4892 C   0  0  0  0  0  0  0  0  0  0  0  0
    1.0126   -1.2725    4.2275 C   0  0  0  0  0  0  0  0  0  0  0  0
    0.1894   -1.4870    5.3630 C   0  0  0  0  0  0  0  0  0  0  0  0
    0.6404   -1.2887    6.6713 C   0  0  0  0  0  0  0  0  0  0  0  0
    1.9346   -0.8479    6.8938 C   0  0  0  0  0  0  0  0  0  0  0  0
    2.7639   -0.5834    5.8080 C   0  0  0  0  0  0  0  0  0  0  0  0
   -1.2429   -0.6098   -1.8268 H   0  0  0  0  0  0  0  0  0  0  0  0
   -2.7281   -3.2206   -0.8097 H   0  0  0  0  0  0  0  0  0  0  0  0
   -3.1106   -3.8186   -3.1318 H   0  0  0  0  0  0  0  0  0  0  0  0
   -4.6898   -2.4963   -4.5173 H   0  0  0  0  0  0  0  0  0  0  0  0
   -5.8663   -0.5999   -3.5528 H   0  0  0  0  0  0  0  0  0  0  0  0
   -5.1157    2.5386   -2.4539 H   0  0  0  0  0  0  0  0  0  0  0  0
   -5.5393    4.4388   -3.9836 H   0  0  0  0  0  0  0  0  0  0  0  0
   -7.0960    5.7512   -5.3710 H   0  0  0  0  0  0  0  0  0  0  0  0
   -9.4879    5.1069   -5.5166 H   0  0  0  0  0  0  0  0  0  0  0  0
  -10.3215    3.1483   -4.2726 H   0  0  0  0  0  0  0  0  0  0  0  0
   -9.8994    1.2393   -2.7327 H   0  0  0  0  0  0  0  0  0  0  0  0
   -8.3521   -0.0730   -1.3494 H   0  0  0  0  0  0  0  0  0  0  0  0
   -3.7211   -0.2026    3.1878 H   0  0  0  0  0  0  0  0  0  0  0  0
   -4.9026    1.6888    4.1467 H   0  0  0  0  0  0  0  0  0  0  0  0
   -6.4800    3.0091    2.7549 H   0  0  0  0  0  0  0  0  0  0  0  0
   -6.8471    2.4120    0.4277 H   0  0  0  0  0  0  0  0  0  0  0  0
   -4.3371   -3.4650    1.8714 H   0  0  0  0  0  0  0  0  0  0  0  0
    0.7800   -4.0020    3.9426 H   0  0  0  0  0  0  0  0  0  0  0  0
   -0.0111   -6.1180    4.8489 H   0  0  0  0  0  0  0  0  0  0  0  0
   -2.3554   -6.8461    4.4776 H   0  0  0  0  0  0  0  0  0  0  0  0
   -3.8840   -5.4403    3.1707 H   0  0  0  0  0  0  0  0  0  0  0  0
    2.2525    2.0013    2.0493 H   0  0  0  0  0  0  0  0  0  0  0  0
    2.3996    4.3306    1.3874 H   0  0  0  0  0  0  0  0  0  0  0  0
    3.9418    5.0156   -0.4334 H   0  0  0  0  0  0  0  0  0  0  0  0
    5.3054    3.3527   -1.5675 H   0  0  0  0  0  0  0  0  0  0  0  0
    4.7514    0.8119   -3.7231 H   0  0  0  0  0  0  0  0  0  0  0  0
    6.2088    1.4768   -5.5835 H   0  0  0  0  0  0  0  0  0  0  0  0
    8.4301    2.2226   -6.4182 H   0  0  0  0  0  0  0  0  0  0  0  0
   10.7769    2.8337   -5.9760 H   0  0  0  0  0  0  0  0  0  0  0  0
   11.6644    2.7802   -3.6595 H   0  0  0  0  0  0  0  0  0  0  0  0
   10.2077    2.1179   -1.7871 H   0  0  0  0  0  0  0  0  0  0  0  0
    7.9938    1.3756   -0.9516 H   0  0  0  0  0  0  0  0  0  0  0  0
    3.7835   -2.8391    1.5202 H   0  0  0  0  0  0  0  0  0  0  0  0
    5.1533   -4.4972    0.3872 H   0  0  0  0  0  0  0  0  0  0  0  0
    6.6598   -3.8148   -1.4635 H   0  0  0  0  0  0  0  0  0  0  0  0
    6.7757   -1.4842   -2.1474 H   0  0  0  0  0  0  0  0  0  0  0  0
    4.1627   -0.0494    3.6350 H   0  0  0  0  0  0  0  0  0  0  0  0
   -0.8440   -1.8063    5.2426 H   0  0  0  0  0  0  0  0  0  0  0  0
   -0.0272   -1.4750    7.5087 H   0  0  0  0  0  0  0  0  0  0  0  0
    2.2952   -0.6908    7.9065 H   0  0  0  0  0  0  0  0  0  0  0  0
    3.7688   -0.2118    6.0022 H   0  0  0  0  0  0  0  0  0  0  0  0
  1  2  2  0  0  0  0
  2 41  1  0  0  0  0
  2  4  1  0  0  0  0
  3  2  1  0  0  0  0
  4  5  1  0  0  0  0
  5 38  1  0  0  0  0
  6  5  2  0  0  0  0
  6 31  1  0  0  0  0
  7 26  1  0  0  0  0
  7  6  1  0  0  0  0
  8  7  2  0  0  0  0
  9 75  1  0  0  0  0
  9  8  1  0  0  0  0
 10  9  2  0  0  0  0
 11 12  2  0  0  0  0
 11 10  1  0  0  0  0
 12 13  1  0  0  0  0
 13 14  2  0  0  0  0
 13  8  1  0  0  0  0
 14 25  1  0  0  0  0
 15 14  1  0  0  0  0
 16 79  1  0  0  0  0
 16 15  2  0  0  0  0
 17 16  1  0  0  0  0
 18 80  1  0  0  0  0
 18 17  2  0  0  0  0
 19 18  1  0  0  0  0
 20 19  2  0  0  0  0
 20 21  1  0  0  0  0
 21 22  2  0  0  0  0
 22 17  1  0  0  0  0
 22 23  1  0  0  0  0
 23 24  2  0  0  0  0
 24 15  1  0  0  0  0
 24 85  1  0  0  0  0
 25 30  2  0  0  0  0
 25 26  1  0  0  0  0
 26 27  2  0  0  0  0
 27 28  1  0  0  0  0
 27 86  1  0  0  0  0
 28 87  1  0  0  0  0
 29 88  1  0  0  0  0
 29 28  2  0  0  0  0
 30 29  1  0  0  0  0
 31 32  2  0  0  0  0
 32 33  1  0  0  0  0
 32 37  1  0  0  0  0
 33 34  1  0  0  0  0
 34 91  1  0  0  0  0
 34 35  2  0  0  0  0
 35 92  1  0  0  0  0
 36 35  1  0  0  0  0
 36 93  1  0  0  0  0
 37 36  2  0  0  0  0
 38 39  1  0  0  0  0
 38 33  2  0  0  0  0
 39 69  2  0  0  0  0
 40 42  2  0  0  0  0
 40 39  1  0  0  0  0
 41 40  1  0  0  0  0
 42 67  1  0  0  0  0
 43 42  1  0  0  0  0
 44 43  1  0  0  0  0
 44 45  2  0  0  0  0
 45 95  1  0  0  0  0
 46 45  1  0  0  0  0
 46 96  1  0  0  0  0
 47 46  2  0  0  0  0
 48 49  2  0  0  0  0
 48 47  1  0  0  0  0
 49 44  1  0  0  0  0
 50 61  2  0  0  0  0
 50 49  1  0  0  0  0
 51 60  1  0  0  0  0
 51 50  1  0  0  0  0
 52 51  2  0  0  0  0
 53 54  2  0  0  0  0
 53 52  1  0  0  0  0
 54 59  1  0  0  0  0
 55 56  2  0  0  0  0
 55 54  1  0  0  0  0
 56 57  1  0  0  0  0
 57103  1  0  0  0  0
 57 58  2  0  0  0  0
 58104  1  0  0  0  0
 59 58  1  0  0  0  0
 59 60  2  0  0  0  0
 60105  1  0  0  0  0
 61 62  1  0  0  0  0
 62 63  1  0  0  0  0
 62 43  2  0  0  0  0
 63106  1  0  0  0  0
 64107  1  0  0  0  0
 64 63  2  0  0  0  0
 65 64  1  0  0  0  0
 66 65  2  0  0  0  0
 66 61  1  0  0  0  0
 67110  1  0  0  0  0
 67 68  2  0  0  0  0
 68 73  1  0  0  0  0
 69 68  1  0  0  0  0
 69 70  1  0  0  0  0
 70 71  2  0  0  0  0
 71 72  1  0  0  0  0
 71112  1  0  0  0  0
 72113  1  0  0  0  0
 73114  1  0  0  0  0
 73 72  2  0  0  0  0
 74  3  1  0  0  0  0
 76 10  1  0  0  0  0
 77 11  1  0  0  0  0
 78 12  1  0  0  0  0
 81 19  1  0  0  0  0
 82 20  1  0  0  0  0
 83 21  1  0  0  0  0
 84 23  1  0  0  0  0
 89 30  1  0  0  0  0
 90 31  1  0  0  0  0
 94 37  1  0  0  0  0
 97 47  1  0  0  0  0
 98 48  1  0  0  0  0
 99 52  1  0  0  0  0
100 53  1  0  0  0  0
101 55  1  0  0  0  0
102 56  1  0  0  0  0
108 65  1  0  0  0  0
109 66  1  0  0  0  0
111 70  1  0  0  0  0
M  END
$$$$
