O=P1(O)OC2=C(C3=C(C(C)C)C=C(C(C)C)C=C3C(C)C)C=C4C(C=CC=C4)=C2C5=C(O1)[C@@]([C@@]6=C(C(C)C)C=C(C(C)C)C=C6C(C)C)=CC7=C5C=CC=C7
 OpenBabel09032010383D

112118  0  0  0  0  0  0  0  0999 V2000
   -0.7439   -0.7519    2.2649 O   0  0  0  0  0  0  0  0  0  0  0  0
   -0.0721   -0.6000    0.9375 P   0  0  0  0  0  0  0  0  0  0  0  0
    0.7416   -1.9291    0.5457 O   0  0  0  0  0  0  0  0  0  0  0  0
    1.0520    0.5467    0.8862 O   0  0  0  0  0  0  0  0  0  0  0  0
    1.5709    0.9538   -0.3205 C   0  0  0  0  0  0  0  0  0  0  0  0
    2.9541    0.7566   -0.5045 C   0  0  0  0  0  0  0  0  0  0  0  0
    3.8014    0.0578    0.4911 C   0  0  0  0  0  0  0  0  0  0  0  0
    4.2172   -1.2914    0.2739 C   0  0  0  0  0  0  0  0  0  0  0  0
    3.8275   -2.0772   -0.9841 C   0  0  0  0  0  0  0  0  0  0  0  0
    3.4171   -3.5316   -0.7034 C   0  0  0  0  0  0  0  0  0  0  0  0
    4.9732   -2.0646   -2.0025 C   0  0  0  0  0  0  0  0  0  0  0  0
    5.0499   -1.9156    1.2253 C   0  0  0  0  0  0  0  0  0  0  0  0
    5.4621   -1.2652    2.3915 C   0  0  0  0  0  0  0  0  0  0  0  0
    6.3523   -1.9466    3.4160 C   0  0  0  0  0  0  0  0  0  0  0  0
    5.6857   -3.1936    4.0030 C   0  0  0  0  0  0  0  0  0  0  0  0
    7.7246   -2.2860    2.8290 C   0  0  0  0  0  0  0  0  0  0  0  0
    5.0475    0.0527    2.5963 C   0  0  0  0  0  0  0  0  0  0  0  0
    4.2344    0.7346    1.6671 C   0  0  0  0  0  0  0  0  0  0  0  0
    3.8720    2.1942    1.9558 C   0  0  0  0  0  0  0  0  0  0  0  0
    5.1198    3.0841    1.9879 C   0  0  0  0  0  0  0  0  0  0  0  0
    3.0681    2.3351    3.2529 C   0  0  0  0  0  0  0  0  0  0  0  0
    3.5383    1.2689   -1.6641 C   0  0  0  0  0  0  0  0  0  0  0  0
    2.7715    1.8803   -2.6567 C   0  0  0  0  0  0  0  0  0  0  0  0
    1.3738    2.0523   -2.4734 C   0  0  0  0  0  0  0  0  0  0  0  0
    0.6626    2.5831   -3.5808 C   0  0  0  0  0  0  0  0  0  0  0  0
    1.2940    2.9845   -4.7612 C   0  0  0  0  0  0  0  0  0  0  0  0
    2.6668    2.8531   -4.8867 C   0  0  0  0  0  0  0  0  0  0  0  0
    3.3995    2.2983   -3.8421 C   0  0  0  0  0  0  0  0  0  0  0  0
    0.7453    1.6536   -1.2368 C   0  0  0  0  0  0  0  0  0  0  0  0
   -0.6407    1.9473   -0.9183 C   0  0  0  0  0  0  0  0  0  0  0  0
   -1.5220    0.9082   -0.5280 C   0  0  0  0  0  0  0  0  0  0  0  0
   -1.0229   -0.3590   -0.3372 O   0  0  0  0  0  0  0  0  0  0  0  0
   -2.9159    1.0683   -0.4198 C   0  0  0  0  0  0  0  0  0  0  0  0
   -3.8332   -0.0624   -0.1499 C   0  0  0  0  0  0  0  0  0  0  0  0
   -4.3731   -0.2717    1.1527 C   0  0  0  0  0  0  0  0  0  0  0  0
   -4.0114    0.6251    2.3406 C   0  0  0  0  0  0  0  0  0  0  0  0
   -5.1098    1.6651    2.5856 C   0  0  0  0  0  0  0  0  0  0  0  0
   -3.7436   -0.1538    3.6375 C   0  0  0  0  0  0  0  0  0  0  0  0
   -5.2933   -1.3216    1.3543 C   0  0  0  0  0  0  0  0  0  0  0  0
   -5.6703   -2.1874    0.3241 C   0  0  0  0  0  0  0  0  0  0  0  0
   -6.6524   -3.3118    0.6005 C   0  0  0  0  0  0  0  0  0  0  0  0
   -7.9345   -3.1540   -0.2209 C   0  0  0  0  0  0  0  0  0  0  0  0
   -6.0173   -4.6844    0.3632 C   0  0  0  0  0  0  0  0  0  0  0  0
   -5.1227   -1.9841   -0.9446 C   0  0  0  0  0  0  0  0  0  0  0  0
   -4.2198   -0.9340   -1.2090 C   0  0  0  0  0  0  0  0  0  0  0  0
   -3.6964   -0.7712   -2.6389 C   0  0  0  0  0  0  0  0  0  0  0  0
   -2.8652   -1.9825   -3.0742 C   0  0  0  0  0  0  0  0  0  0  0  0
   -4.8348   -0.5044   -3.6304 C   0  0  0  0  0  0  0  0  0  0  0  0
   -3.4467    2.3420   -0.6367 C   0  0  0  0  0  0  0  0  0  0  0  0
   -2.6247    3.4398   -0.8973 C   0  0  0  0  0  0  0  0  0  0  0  0
   -1.2214    3.2637   -1.0196 C   0  0  0  0  0  0  0  0  0  0  0  0
   -0.4564    4.4445   -1.1998 C   0  0  0  0  0  0  0  0  0  0  0  0
   -1.0401    5.7089   -1.3177 C   0  0  0  0  0  0  0  0  0  0  0  0
   -2.4170    5.8419   -1.2429 C   0  0  0  0  0  0  0  0  0  0  0  0
   -3.2032    4.7137   -1.0283 C   0  0  0  0  0  0  0  0  0  0  0  0
    1.1952   -2.2770    1.3347 H   0  0  0  0  0  0  0  0  0  0  0  0
    2.9517   -1.6108   -1.4477 H   0  0  0  0  0  0  0  0  0  0  0  0
    4.2730   -4.1589   -0.4321 H   0  0  0  0  0  0  0  0  0  0  0  0
    2.9655   -3.9756   -1.5977 H   0  0  0  0  0  0  0  0  0  0  0  0
    2.6875   -3.5969    0.1083 H   0  0  0  0  0  0  0  0  0  0  0  0
    4.6717   -2.5672   -2.9280 H   0  0  0  0  0  0  0  0  0  0  0  0
    5.8603   -2.5795   -1.6163 H   0  0  0  0  0  0  0  0  0  0  0  0
    5.2751   -1.0459   -2.2612 H   0  0  0  0  0  0  0  0  0  0  0  0
    5.3972   -2.9312    1.0487 H   0  0  0  0  0  0  0  0  0  0  0  0
    6.5212   -1.2523    4.2499 H   0  0  0  0  0  0  0  0  0  0  0  0
    5.5349   -3.9728    3.2480 H   0  0  0  0  0  0  0  0  0  0  0  0
    4.7069   -2.9493    4.4308 H   0  0  0  0  0  0  0  0  0  0  0  0
    6.3032   -3.6200    4.8009 H   0  0  0  0  0  0  0  0  0  0  0  0
    8.3817   -2.7003    3.6013 H   0  0  0  0  0  0  0  0  0  0  0  0
    8.2084   -1.3910    2.4220 H   0  0  0  0  0  0  0  0  0  0  0  0
    7.6544   -3.0233    2.0219 H   0  0  0  0  0  0  0  0  0  0  0  0
    5.3763    0.5704    3.4961 H   0  0  0  0  0  0  0  0  0  0  0  0
    3.2398    2.5956    1.1590 H   0  0  0  0  0  0  0  0  0  0  0  0
    5.6884    2.9924    1.0557 H   0  0  0  0  0  0  0  0  0  0  0  0
    5.7896    2.8279    2.8155 H   0  0  0  0  0  0  0  0  0  0  0  0
    4.8374    4.1360    2.1057 H   0  0  0  0  0  0  0  0  0  0  0  0
    2.7360    3.3705    3.3865 H   0  0  0  0  0  0  0  0  0  0  0  0
    3.6562    2.0621    4.1355 H   0  0  0  0  0  0  0  0  0  0  0  0
    2.1775    1.6978    3.2349 H   0  0  0  0  0  0  0  0  0  0  0  0
    4.6129    1.1568   -1.8015 H   0  0  0  0  0  0  0  0  0  0  0  0
   -0.4210    2.6807   -3.5453 H   0  0  0  0  0  0  0  0  0  0  0  0
    0.7045    3.3923   -5.5781 H   0  0  0  0  0  0  0  0  0  0  0  0
    3.1659    3.1608   -5.8008 H   0  0  0  0  0  0  0  0  0  0  0  0
    4.4736    2.1764   -3.9702 H   0  0  0  0  0  0  0  0  0  0  0  0
   -3.0802    1.1589    2.1221 H   0  0  0  0  0  0  0  0  0  0  0  0
   -4.8233    2.3448    3.3954 H   0  0  0  0  0  0  0  0  0  0  0  0
   -6.0575    1.1914    2.8657 H   0  0  0  0  0  0  0  0  0  0  0  0
   -5.2979    2.2708    1.6943 H   0  0  0  0  0  0  0  0  0  0  0  0
   -4.6628   -0.5561    4.0767 H   0  0  0  0  0  0  0  0  0  0  0  0
   -3.2915    0.5047    4.3876 H   0  0  0  0  0  0  0  0  0  0  0  0
   -3.0609   -0.9920    3.4691 H   0  0  0  0  0  0  0  0  0  0  0  0
   -5.7295   -1.4687    2.3400 H   0  0  0  0  0  0  0  0  0  0  0  0
   -6.9424   -3.2714    1.6589 H   0  0  0  0  0  0  0  0  0  0  0  0
   -8.3957   -2.1762   -0.0424 H   0  0  0  0  0  0  0  0  0  0  0  0
   -7.7464   -3.2427   -1.2964 H   0  0  0  0  0  0  0  0  0  0  0  0
   -8.6640   -3.9238    0.0531 H   0  0  0  0  0  0  0  0  0  0  0  0
   -5.1059   -4.8023    0.9600 H   0  0  0  0  0  0  0  0  0  0  0  0
   -5.7497   -4.8365   -0.6881 H   0  0  0  0  0  0  0  0  0  0  0  0
   -6.7104   -5.4833    0.6483 H   0  0  0  0  0  0  0  0  0  0  0  0
   -5.4100   -2.6541   -1.7525 H   0  0  0  0  0  0  0  0  0  0  0  0
   -3.0347    0.0966   -2.7081 H   0  0  0  0  0  0  0  0  0  0  0  0
   -2.4250   -1.8100   -4.0625 H   0  0  0  0  0  0  0  0  0  0  0  0
   -3.4672   -2.8953   -3.1361 H   0  0  0  0  0  0  0  0  0  0  0  0
   -2.0462   -2.1696   -2.3713 H   0  0  0  0  0  0  0  0  0  0  0  0
   -5.4266    0.3640   -3.3203 H   0  0  0  0  0  0  0  0  0  0  0  0
   -5.5144   -1.3583   -3.7214 H   0  0  0  0  0  0  0  0  0  0  0  0
   -4.4325   -0.2966   -4.6280 H   0  0  0  0  0  0  0  0  0  0  0  0
   -4.5265    2.4743   -0.5783 H   0  0  0  0  0  0  0  0  0  0  0  0
    0.6306    4.3959   -1.2398 H   0  0  0  0  0  0  0  0  0  0  0  0
   -0.4117    6.5835   -1.4630 H   0  0  0  0  0  0  0  0  0  0  0  0
   -2.8795    6.8208   -1.3342 H   0  0  0  0  0  0  0  0  0  0  0  0
   -4.2816    4.8401   -0.9485 H   0  0  0  0  0  0  0  0  0  0  0  0
  2  1  2  0  0  0  0
  3  2  1  0  0  0  0
  3 56  1  0  0  0  0
  4  2  1  0  0  0  0
  5  4  1  0  0  0  0
  6  5  1  0  0  0  0
  6  7  1  0  0  0  0
  7 18  1  0  0  0  0
  8  7  2  0  0  0  0
  8 12  1  0  0  0  0
  9 10  1  0  0  0  0
  9  8  1  0  0  0  0
 10 58  1  0  0  0  0
 10 60  1  0  0  0  0
 11 62  1  0  0  0  0
 11  9  1  0  0  0  0
 12 13  2  0  0  0  0
 13 17  1  0  0  0  0
 13 14  1  0  0  0  0
 14 15  1  0  0  0  0
 14 65  1  0  0  0  0
 15 67  1  0  0  0  0
 15 68  1  0  0  0  0
 16 14  1  0  0  0  0
 16 69  1  0  0  0  0
 17 72  1  0  0  0  0
 18 19  1  0  0  0  0
 18 17  2  0  0  0  0
 19 20  1  0  0  0  0
 19 21  1  0  0  0  0
 20 76  1  0  0  0  0
 20 75  1  0  0  0  0
 21 77  1  0  0  0  0
 21 78  1  0  0  0  0
 22  6  2  0  0  0  0
 23 24  1  0  0  0  0
 23 22  1  0  0  0  0
 24 29  1  0  0  0  0
 25 81  1  0  0  0  0
 25 24  2  0  0  0  0
 26 25  1  0  0  0  0
 27 26  2  0  0  0  0
 27 28  1  0  0  0  0
 28 23  2  0  0  0  0
 29 30  1  0  0  0  0
 29  5  2  0  0  0  0
 30 31  2  0  0  0  0
 31 33  1  0  0  0  0
 31 32  1  0  0  0  0
 32  2  1  0  0  0  0
 33 34  1  0  0  0  0
 34 35  2  0  0  0  0
 35 39  1  0  0  0  0
 35 36  1  0  0  0  0
 36 37  1  0  0  0  0
 36 38  1  0  0  0  0
 37 87  1  0  0  0  0
 37 86  1  0  0  0  0
 38 89  1  0  0  0  0
 38 90  1  0  0  0  0
 39 92  1  0  0  0  0
 40 41  1  0  0  0  0
 40 39  2  0  0  0  0
 41 93  1  0  0  0  0
 42 94  1  0  0  0  0
 42 96  1  0  0  0  0
 42 41  1  0  0  0  0
 43 41  1  0  0  0  0
 43 99  1  0  0  0  0
 43 97  1  0  0  0  0
 44 40  1  0  0  0  0
 45 44  2  0  0  0  0
 45 34  1  0  0  0  0
 46 45  1  0  0  0  0
 47 46  1  0  0  0  0
 47104  1  0  0  0  0
 48105  1  0  0  0  0
 48 46  1  0  0  0  0
 49108  1  0  0  0  0
 49 33  2  0  0  0  0
 50 49  1  0  0  0  0
 51 30  1  0  0  0  0
 51 50  1  0  0  0  0
 52 51  2  0  0  0  0
 53 54  2  0  0  0  0
 53 52  1  0  0  0  0
 54 55  1  0  0  0  0
 55112  1  0  0  0  0
 55 50  2  0  0  0  0
 57  9  1  0  0  0  0
 59 10  1  0  0  0  0
 61 11  1  0  0  0  0
 63 11  1  0  0  0  0
 64 12  1  0  0  0  0
 66 15  1  0  0  0  0
 70 16  1  0  0  0  0
 71 16  1  0  0  0  0
 73 19  1  0  0  0  0
 74 20  1  0  0  0  0
 79 21  1  0  0  0  0
 80 22  1  0  0  0  0
 82 26  1  0  0  0  0
 83 27  1  0  0  0  0
 84 28  1  0  0  0  0
 85 36  1  0  0  0  0
 88 37  1  0  0  0  0
 91 38  1  0  0  0  0
 95 42  1  0  0  0  0
 98 43  1  0  0  0  0
100 44  1  0  0  0  0
101 46  1  0  0  0  0
102 47  1  0  0  0  0
103 47  1  0  0  0  0
106 48  1  0  0  0  0
107 48  1  0  0  0  0
109 52  1  0  0  0  0
110 53  1  0  0  0  0
111 54  1  0  0  0  0
M  END
$$$$
