O=P1(O)OC2=C([Si](C3=CC=CC=C3)(C4=CC=CC=C4)C5=CC=CC=C5)C=C6C(CCCC6)=C2C7=C(O1)C([Si](C8=CC=CC=C8)(C9=CC=CC=C9)C%10=CC=CC=C%10)=CC%11=C7CCCC%11
 OpenBabel09032010383D

112122  0  0  0  0  0  0  0  0999 V2000
   -1.1699    1.2686   -2.3201 O   0  0  0  0  0  0  0  0  0  0  0  0
   -0.2319    1.2348   -1.1508 P   0  0  0  0  0  0  0  0  0  0  0  0
    0.6061    2.5970   -1.0136 O   0  0  0  0  0  0  0  0  0  0  0  0
   -0.9246    1.0802    0.3012 O   0  0  0  0  0  0  0  0  0  0  0  0
   -1.5066   -0.1292    0.5721 C   0  0  0  0  0  0  0  0  0  0  0  0
   -2.9070   -0.2140    0.6803 C   0  0  0  0  0  0  0  0  0  0  0  0
   -4.0826    1.2454    0.6831 Si  0  0  0  0  0  0  0  0  0  0  0  0
   -3.3215    2.8211    0.0387 C   0  0  0  0  0  0  0  0  0  0  0  0
   -2.4847    3.6040    0.8639 C   0  0  0  0  0  0  0  0  0  0  0  0
   -1.8849    4.7763    0.3957 C   0  0  0  0  0  0  0  0  0  0  0  0
   -2.1105    5.2012   -0.9081 C   0  0  0  0  0  0  0  0  0  0  0  0
   -2.9399    4.4573   -1.7401 C   0  0  0  0  0  0  0  0  0  0  0  0
   -3.5400    3.2830   -1.2723 C   0  0  0  0  0  0  0  0  0  0  0  0
   -4.6391    1.5839    2.4492 C   0  0  0  0  0  0  0  0  0  0  0  0
   -4.3878    0.6852    3.5032 C   0  0  0  0  0  0  0  0  0  0  0  0
   -4.8086    0.9637    4.8076 C   0  0  0  0  0  0  0  0  0  0  0  0
   -5.4865    2.1457    5.0892 C   0  0  0  0  0  0  0  0  0  0  0  0
   -5.7432    3.0540    4.0679 C   0  0  0  0  0  0  0  0  0  0  0  0
   -5.3240    2.7780    2.7637 C   0  0  0  0  0  0  0  0  0  0  0  0
   -5.5753    0.7650   -0.3502 C   0  0  0  0  0  0  0  0  0  0  0  0
   -6.8947    0.9168    0.1181 C   0  0  0  0  0  0  0  0  0  0  0  0
   -7.9914    0.5381   -0.6636 C   0  0  0  0  0  0  0  0  0  0  0  0
   -7.7968   -0.0036   -1.9299 C   0  0  0  0  0  0  0  0  0  0  0  0
   -6.5036   -0.1689   -2.4161 C   0  0  0  0  0  0  0  0  0  0  0  0
   -5.4053    0.2084   -1.6363 C   0  0  0  0  0  0  0  0  0  0  0  0
   -3.4418   -1.5093    0.8195 C   0  0  0  0  0  0  0  0  0  0  0  0
   -2.6341   -2.6566    0.8261 C   0  0  0  0  0  0  0  0  0  0  0  0
   -1.2328   -2.5244    0.7475 C   0  0  0  0  0  0  0  0  0  0  0  0
   -0.3700   -3.7712    0.5988 C   0  0  0  0  0  0  0  0  0  0  0  0
   -1.1495   -5.0141    0.1720 C   0  0  0  0  0  0  0  0  0  0  0  0
   -2.3779   -5.1781    1.0514 C   0  0  0  0  0  0  0  0  0  0  0  0
   -3.3242   -4.0016    0.8444 C   0  0  0  0  0  0  0  0  0  0  0  0
   -0.6319   -1.2309    0.7248 C   0  0  0  0  0  0  0  0  0  0  0  0
    0.7857   -1.0245    0.8542 C   0  0  0  0  0  0  0  0  0  0  0  0
    1.5552   -0.4116   -0.1758 C   0  0  0  0  0  0  0  0  0  0  0  0
    0.9025    0.0935   -1.2729 O   0  0  0  0  0  0  0  0  0  0  0  0
    2.9682   -0.4255   -0.1984 C   0  0  0  0  0  0  0  0  0  0  0  0
    4.0178    0.1473   -1.6511 Si  0  0  0  0  0  0  0  0  0  0  0  0
    4.2393   -1.4296   -2.6494 C   0  0  0  0  0  0  0  0  0  0  0  0
    3.1174   -2.1060   -3.1762 C   0  0  0  0  0  0  0  0  0  0  0  0
    3.2479   -3.2974   -3.8961 C   0  0  0  0  0  0  0  0  0  0  0  0
    4.5037   -3.8573   -4.0926 C   0  0  0  0  0  0  0  0  0  0  0  0
    5.6248   -3.2336   -3.5573 C   0  0  0  0  0  0  0  0  0  0  0  0
    5.4932   -2.0410   -2.8369 C   0  0  0  0  0  0  0  0  0  0  0  0
    5.6811    0.8459   -1.0954 C   0  0  0  0  0  0  0  0  0  0  0  0
    5.9055    1.3061    0.2174 C   0  0  0  0  0  0  0  0  0  0  0  0
    7.1356    1.8537    0.5963 C   0  0  0  0  0  0  0  0  0  0  0  0
    8.1627    1.9798   -0.3329 C   0  0  0  0  0  0  0  0  0  0  0  0
    7.9559    1.5744   -1.6466 C   0  0  0  0  0  0  0  0  0  0  0  0
    6.7273    1.0259   -2.0261 C   0  0  0  0  0  0  0  0  0  0  0  0
    3.2486    1.5423   -2.6344 C   0  0  0  0  0  0  0  0  0  0  0  0
    2.3502    1.3267   -3.6951 C   0  0  0  0  0  0  0  0  0  0  0  0
    1.7368    2.3947   -4.3582 C   0  0  0  0  0  0  0  0  0  0  0  0
    2.0381    3.7061   -4.0094 C   0  0  0  0  0  0  0  0  0  0  0  0
    2.9595    3.9553   -3.0016 C   0  0  0  0  0  0  0  0  0  0  0  0
    3.5458    2.8878   -2.3153 C   0  0  0  0  0  0  0  0  0  0  0  0
    3.6067   -1.0290    0.9010 C   0  0  0  0  0  0  0  0  0  0  0  0
    2.8991   -1.4905    2.0188 C   0  0  0  0  0  0  0  0  0  0  0  0
    1.4923   -1.4453    2.0179 C   0  0  0  0  0  0  0  0  0  0  0  0
    0.7336   -1.7879    3.2946 C   0  0  0  0  0  0  0  0  0  0  0  0
    1.6056   -1.7966    4.5492 C   0  0  0  0  0  0  0  0  0  0  0  0
    2.8564   -2.6219    4.2983 C   0  0  0  0  0  0  0  0  0  0  0  0
    3.6986   -1.9672    3.2100 C   0  0  0  0  0  0  0  0  0  0  0  0
    0.7415    2.9787   -1.9031 H   0  0  0  0  0  0  0  0  0  0  0  0
   -2.2688    3.2981    1.8883 H   0  0  0  0  0  0  0  0  0  0  0  0
   -1.2331    5.3477    1.0516 H   0  0  0  0  0  0  0  0  0  0  0  0
   -1.6393    6.1082   -1.2745 H   0  0  0  0  0  0  0  0  0  0  0  0
   -3.1208    4.7827   -2.7613 H   0  0  0  0  0  0  0  0  0  0  0  0
   -4.1685    2.7307   -1.9680 H   0  0  0  0  0  0  0  0  0  0  0  0
   -3.8547   -0.2488    3.3365 H   0  0  0  0  0  0  0  0  0  0  0  0
   -4.6028    0.2538    5.6049 H   0  0  0  0  0  0  0  0  0  0  0  0
   -5.8118    2.3598    6.1036 H   0  0  0  0  0  0  0  0  0  0  0  0
   -6.2683    3.9812    4.2828 H   0  0  0  0  0  0  0  0  0  0  0  0
   -5.5409    3.5163    1.9907 H   0  0  0  0  0  0  0  0  0  0  0  0
   -7.0999    1.3266    1.1052 H   0  0  0  0  0  0  0  0  0  0  0  0
   -8.9998    0.6663   -0.2777 H   0  0  0  0  0  0  0  0  0  0  0  0
   -8.6522   -0.2970   -2.5337 H   0  0  0  0  0  0  0  0  0  0  0  0
   -6.3456   -0.5928   -3.4046 H   0  0  0  0  0  0  0  0  0  0  0  0
   -4.4066    0.0606   -2.0516 H   0  0  0  0  0  0  0  0  0  0  0  0
   -4.5232   -1.6493    0.8920 H   0  0  0  0  0  0  0  0  0  0  0  0
    0.1253   -3.9955    1.5463 H   0  0  0  0  0  0  0  0  0  0  0  0
    0.4097   -3.5940   -0.1518 H   0  0  0  0  0  0  0  0  0  0  0  0
   -0.5055   -5.8971    0.2521 H   0  0  0  0  0  0  0  0  0  0  0  0
   -1.4509   -4.9289   -0.8797 H   0  0  0  0  0  0  0  0  0  0  0  0
   -2.0745   -5.2352    2.1045 H   0  0  0  0  0  0  0  0  0  0  0  0
   -2.8952   -6.1146    0.8150 H   0  0  0  0  0  0  0  0  0  0  0  0
   -4.0842   -4.0165    1.6348 H   0  0  0  0  0  0  0  0  0  0  0  0
   -3.8425   -4.1265   -0.1151 H   0  0  0  0  0  0  0  0  0  0  0  0
    2.1083   -1.7273   -3.0172 H   0  0  0  0  0  0  0  0  0  0  0  0
    2.3635   -3.7898   -4.2921 H   0  0  0  0  0  0  0  0  0  0  0  0
    4.6064   -4.7852   -4.6473 H   0  0  0  0  0  0  0  0  0  0  0  0
    6.6075   -3.6795   -3.6881 H   0  0  0  0  0  0  0  0  0  0  0  0
    6.3991   -1.6189   -2.4085 H   0  0  0  0  0  0  0  0  0  0  0  0
    5.1198    1.2712    0.9705 H   0  0  0  0  0  0  0  0  0  0  0  0
    7.2840    2.1936    1.6182 H   0  0  0  0  0  0  0  0  0  0  0  0
    9.1155    2.4104   -0.0381 H   0  0  0  0  0  0  0  0  0  0  0  0
    8.7466    1.6934   -2.3832 H   0  0  0  0  0  0  0  0  0  0  0  0
    6.5956    0.7509   -3.0731 H   0  0  0  0  0  0  0  0  0  0  0  0
    2.0761    0.3235   -4.0118 H   0  0  0  0  0  0  0  0  0  0  0  0
    1.0052    2.1964   -5.1366 H   0  0  0  0  0  0  0  0  0  0  0  0
    1.5416    4.5301   -4.5089 H   0  0  0  0  0  0  0  0  0  0  0  0
    3.2101    4.9779   -2.7287 H   0  0  0  0  0  0  0  0  0  0  0  0
    4.2359    3.1365   -1.5089 H   0  0  0  0  0  0  0  0  0  0  0  0
    4.6931   -1.1338    0.9162 H   0  0  0  0  0  0  0  0  0  0  0  0
   -0.0688   -1.0569    3.4525 H   0  0  0  0  0  0  0  0  0  0  0  0
    0.2716   -2.7731    3.2026 H   0  0  0  0  0  0  0  0  0  0  0  0
    1.0380   -2.2139    5.3885 H   0  0  0  0  0  0  0  0  0  0  0  0
    1.8826   -0.7713    4.8250 H   0  0  0  0  0  0  0  0  0  0  0  0
    2.5748   -3.6382    3.9947 H   0  0  0  0  0  0  0  0  0  0  0  0
    3.4458   -2.7132    5.2175 H   0  0  0  0  0  0  0  0  0  0  0  0
    4.2165   -1.0982    3.6362 H   0  0  0  0  0  0  0  0  0  0  0  0
    4.4648   -2.6792    2.8803 H   0  0  0  0  0  0  0  0  0  0  0  0
  1  2  2  0  0  0  0
  2  3  1  0  0  0  0
  2  4  1  0  0  0  0
  4  5  1  0  0  0  0
  5  6  2  0  0  0  0
  5 33  1  0  0  0  0
  6  7  1  0  0  0  0
  6 26  1  0  0  0  0
  7 14  1  0  0  0  0
  8  7  1  0  0  0  0
  8  9  2  0  0  0  0
  9 65  1  0  0  0  0
 10  9  1  0  0  0  0
 10 66  1  0  0  0  0
 11 10  2  0  0  0  0
 12 13  2  0  0  0  0
 12 11  1  0  0  0  0
 13  8  1  0  0  0  0
 14 19  2  0  0  0  0
 14 15  1  0  0  0  0
 15 16  2  0  0  0  0
 16 17  1  0  0  0  0
 16 71  1  0  0  0  0
 17 72  1  0  0  0  0
 18 73  1  0  0  0  0
 18 17  2  0  0  0  0
 19 18  1  0  0  0  0
 20 21  1  0  0  0  0
 20  7  1  0  0  0  0
 21 75  1  0  0  0  0
 22 76  1  0  0  0  0
 22 21  2  0  0  0  0
 23 22  1  0  0  0  0
 24 23  2  0  0  0  0
 24 25  1  0  0  0  0
 25 20  2  0  0  0  0
 26 27  2  0  0  0  0
 26 80  1  0  0  0  0
 27 32  1  0  0  0  0
 28 27  1  0  0  0  0
 29 28  1  0  0  0  0
 29 81  1  0  0  0  0
 30 83  1  0  0  0  0
 30 29  1  0  0  0  0
 30 31  1  0  0  0  0
 31 85  1  0  0  0  0
 32 31  1  0  0  0  0
 32 87  1  0  0  0  0
 33 28  2  0  0  0  0
 33 34  1  0  0  0  0
 34 59  2  0  0  0  0
 35 34  1  0  0  0  0
 36  2  1  0  0  0  0
 36 35  1  0  0  0  0
 37 35  2  0  0  0  0
 37 57  1  0  0  0  0
 38 45  1  0  0  0  0
 38 37  1  0  0  0  0
 39 38  1  0  0  0  0
 40 89  1  0  0  0  0
 40 39  2  0  0  0  0
 41 40  1  0  0  0  0
 42 41  2  0  0  0  0
 42 43  1  0  0  0  0
 43 44  2  0  0  0  0
 44 39  1  0  0  0  0
 44 93  1  0  0  0  0
 45 46  2  0  0  0  0
 46 47  1  0  0  0  0
 46 94  1  0  0  0  0
 47 95  1  0  0  0  0
 48 96  1  0  0  0  0
 48 47  2  0  0  0  0
 49 48  1  0  0  0  0
 50 49  2  0  0  0  0
 50 45  1  0  0  0  0
 51 56  1  0  0  0  0
 51 38  1  0  0  0  0
 52 51  2  0  0  0  0
 53 54  2  0  0  0  0
 53 52  1  0  0  0  0
 54 55  1  0  0  0  0
 55102  1  0  0  0  0
 55 56  2  0  0  0  0
 56103  1  0  0  0  0
 57104  1  0  0  0  0
 57 58  2  0  0  0  0
 58 63  1  0  0  0  0
 59 58  1  0  0  0  0
 59 60  1  0  0  0  0
 60105  1  0  0  0  0
 60 61  1  0  0  0  0
 61108  1  0  0  0  0
 61107  1  0  0  0  0
 62 61  1  0  0  0  0
 62110  1  0  0  0  0
 63111  1  0  0  0  0
 63 62  1  0  0  0  0
 64  3  1  0  0  0  0
 67 11  1  0  0  0  0
 68 12  1  0  0  0  0
 69 13  1  0  0  0  0
 70 15  1  0  0  0  0
 74 19  1  0  0  0  0
 77 23  1  0  0  0  0
 78 24  1  0  0  0  0
 79 25  1  0  0  0  0
 82 29  1  0  0  0  0
 84 30  1  0  0  0  0
 86 31  1  0  0  0  0
 88 32  1  0  0  0  0
 90 41  1  0  0  0  0
 91 42  1  0  0  0  0
 92 43  1  0  0  0  0
 97 49  1  0  0  0  0
 98 50  1  0  0  0  0
 99 52  1  0  0  0  0
100 53  1  0  0  0  0
101 54  1  0  0  0  0
106 60  1  0  0  0  0
109 62  1  0  0  0  0
112 63  1  0  0  0  0
M  END
$$$$
