O=P1(O)OC2=C(C3=CC(C(C)(C)C)=CC(C(C)(C)C)=C3)C=C4C(C=CC=C4)=C2C5=C(O1)C(C6=CC(C(C)(C)C)=CC(C(C)(C)C)=C6)=CC7=C5C=CC=C7
 OpenBabel09032010383D

106112  0  0  0  0  0  0  0  0999 V2000
    0.7648    0.2169    1.7802 O   0  0  0  0  0  0  0  0  0  0  0  0
    0.0306    0.1759    0.4771 P   0  0  0  0  0  0  0  0  0  0  0  0
   -0.8496    1.5029    0.2434 O   0  0  0  0  0  0  0  0  0  0  0  0
   -1.0516   -1.0107    0.3514 O   0  0  0  0  0  0  0  0  0  0  0  0
   -1.6404   -1.2487   -0.8711 C   0  0  0  0  0  0  0  0  0  0  0  0
   -3.0122   -0.9565   -0.9724 C   0  0  0  0  0  0  0  0  0  0  0  0
   -3.7629   -0.3479    0.1367 C   0  0  0  0  0  0  0  0  0  0  0  0
   -4.0532   -1.0758    1.2995 C   0  0  0  0  0  0  0  0  0  0  0  0
   -4.7383   -0.4982    2.3790 C   0  0  0  0  0  0  0  0  0  0  0  0
   -5.0606   -1.2790    3.6673 C   0  0  0  0  0  0  0  0  0  0  0  0
   -6.5890   -1.3163    3.8841 C   0  0  0  0  0  0  0  0  0  0  0  0
   -4.5675   -2.7440    3.6525 C   0  0  0  0  0  0  0  0  0  0  0  0
   -4.3913   -0.5868    4.8745 C   0  0  0  0  0  0  0  0  0  0  0  0
   -5.1312    0.8533    2.2538 C   0  0  0  0  0  0  0  0  0  0  0  0
   -4.8648    1.6222    1.1068 C   0  0  0  0  0  0  0  0  0  0  0  0
   -5.2857    3.0966    0.9728 C   0  0  0  0  0  0  0  0  0  0  0  0
   -4.0305    3.9755    0.7800 C   0  0  0  0  0  0  0  0  0  0  0  0
   -6.2164    3.2636   -0.2479 C   0  0  0  0  0  0  0  0  0  0  0  0
   -6.0438    3.6471    2.2019 C   0  0  0  0  0  0  0  0  0  0  0  0
   -4.1772    0.9900    0.0569 C   0  0  0  0  0  0  0  0  0  0  0  0
   -3.6515   -1.2306   -2.1809 C   0  0  0  0  0  0  0  0  0  0  0  0
   -2.9483   -1.7407   -3.2755 C   0  0  0  0  0  0  0  0  0  0  0  0
   -1.5571   -2.0153   -3.1692 C   0  0  0  0  0  0  0  0  0  0  0  0
   -0.9092   -2.4239   -4.3630 C   0  0  0  0  0  0  0  0  0  0  0  0
   -1.5962   -2.6189   -5.5644 C   0  0  0  0  0  0  0  0  0  0  0  0
   -2.9614   -2.3918   -5.6221 C   0  0  0  0  0  0  0  0  0  0  0  0
   -3.6309   -1.9486   -4.4857 C   0  0  0  0  0  0  0  0  0  0  0  0
   -0.8707   -1.8177   -1.9150 C   0  0  0  0  0  0  0  0  0  0  0  0
    0.5226   -2.1519   -1.6913 C   0  0  0  0  0  0  0  0  0  0  0  0
    1.4143   -1.1669   -1.1963 C   0  0  0  0  0  0  0  0  0  0  0  0
    0.9241    0.0765   -0.8601 O   0  0  0  0  0  0  0  0  0  0  0  0
    2.8011   -1.3553   -1.0813 C   0  0  0  0  0  0  0  0  0  0  0  0
    3.7018   -0.2872   -0.6321 C   0  0  0  0  0  0  0  0  0  0  0  0
    4.0347   -0.1519    0.7211 C   0  0  0  0  0  0  0  0  0  0  0  0
    4.8999    0.8596    1.1765 C   0  0  0  0  0  0  0  0  0  0  0  0
    5.2280    0.9675    2.6776 C   0  0  0  0  0  0  0  0  0  0  0  0
    6.1761    2.1357    3.0320 C   0  0  0  0  0  0  0  0  0  0  0  0
    5.9122   -0.3333    3.1512 C   0  0  0  0  0  0  0  0  0  0  0  0
    3.9274    1.1793    3.4829 C   0  0  0  0  0  0  0  0  0  0  0  0
    5.4289    1.7429    0.2147 C   0  0  0  0  0  0  0  0  0  0  0  0
    5.1207    1.6463   -1.1566 C   0  0  0  0  0  0  0  0  0  0  0  0
    5.6898    2.6155   -2.2093 C   0  0  0  0  0  0  0  0  0  0  0  0
    4.5309    3.3577   -2.9100 C   0  0  0  0  0  0  0  0  0  0  0  0
    6.6344    3.6924   -1.6286 C   0  0  0  0  0  0  0  0  0  0  0  0
    6.4966    1.8239   -3.2616 C   0  0  0  0  0  0  0  0  0  0  0  0
    4.2500    0.6150   -1.5529 C   0  0  0  0  0  0  0  0  0  0  0  0
    3.3247   -2.6027   -1.4220 C   0  0  0  0  0  0  0  0  0  0  0  0
    2.4976   -3.6497   -1.8379 C   0  0  0  0  0  0  0  0  0  0  0  0
    1.0960   -3.4482   -1.9591 C   0  0  0  0  0  0  0  0  0  0  0  0
    0.3260   -4.5902   -2.2968 C   0  0  0  0  0  0  0  0  0  0  0  0
    0.9035   -5.8346   -2.5640 C   0  0  0  0  0  0  0  0  0  0  0  0
    2.2781   -5.9880   -2.4843 C   0  0  0  0  0  0  0  0  0  0  0  0
    3.0684   -4.9030   -2.1166 C   0  0  0  0  0  0  0  0  0  0  0  0
   -1.3502    1.7188    1.0512 H   0  0  0  0  0  0  0  0  0  0  0  0
   -3.7218   -2.1107    1.3400 H   0  0  0  0  0  0  0  0  0  0  0  0
   -7.0975   -1.7742    3.0274 H   0  0  0  0  0  0  0  0  0  0  0  0
   -6.8475   -1.8990    4.7760 H   0  0  0  0  0  0  0  0  0  0  0  0
   -7.0138   -0.3161    4.0222 H   0  0  0  0  0  0  0  0  0  0  0  0
   -5.0273   -3.3165    2.8384 H   0  0  0  0  0  0  0  0  0  0  0  0
   -4.8212   -3.2558    4.5887 H   0  0  0  0  0  0  0  0  0  0  0  0
   -3.4786   -2.8024    3.5395 H   0  0  0  0  0  0  0  0  0  0  0  0
   -4.5739   -1.1439    5.8008 H   0  0  0  0  0  0  0  0  0  0  0  0
   -4.7692    0.4291    5.0331 H   0  0  0  0  0  0  0  0  0  0  0  0
   -3.3058   -0.5159    4.7362 H   0  0  0  0  0  0  0  0  0  0  0  0
   -5.6621    1.3057    3.0873 H   0  0  0  0  0  0  0  0  0  0  0  0
   -4.2971    5.0370    0.7174 H   0  0  0  0  0  0  0  0  0  0  0  0
   -3.3326    3.8553    1.6172 H   0  0  0  0  0  0  0  0  0  0  0  0
   -3.4871    3.7273   -0.1383 H   0  0  0  0  0  0  0  0  0  0  0  0
   -5.7189    3.0033   -1.1885 H   0  0  0  0  0  0  0  0  0  0  0  0
   -6.5596    4.3004   -0.3444 H   0  0  0  0  0  0  0  0  0  0  0  0
   -7.1036    2.6256   -0.1574 H   0  0  0  0  0  0  0  0  0  0  0  0
   -5.4298    3.6016    3.1089 H   0  0  0  0  0  0  0  0  0  0  0  0
   -6.9699    3.0906    2.3872 H   0  0  0  0  0  0  0  0  0  0  0  0
   -6.3232    4.6975    2.0557 H   0  0  0  0  0  0  0  0  0  0  0  0
   -3.9350    1.5492   -0.8465 H   0  0  0  0  0  0  0  0  0  0  0  0
   -4.7156   -1.0146   -2.2723 H   0  0  0  0  0  0  0  0  0  0  0  0
    0.1671   -2.5855   -4.3797 H   0  0  0  0  0  0  0  0  0  0  0  0
   -1.0559   -2.9406   -6.4507 H   0  0  0  0  0  0  0  0  0  0  0  0
   -3.5030   -2.5377   -6.5520 H   0  0  0  0  0  0  0  0  0  0  0  0
   -4.6985   -1.7489   -4.5587 H   0  0  0  0  0  0  0  0  0  0  0  0
    3.5928   -0.8478    1.4331 H   0  0  0  0  0  0  0  0  0  0  0  0
    5.7437    3.1044    2.7554 H   0  0  0  0  0  0  0  0  0  0  0  0
    7.1450    2.0365    2.5287 H   0  0  0  0  0  0  0  0  0  0  0  0
    6.3766    2.1689    4.1097 H   0  0  0  0  0  0  0  0  0  0  0  0
    5.2624   -1.2083    3.0396 H   0  0  0  0  0  0  0  0  0  0  0  0
    6.8272   -0.5283    2.5793 H   0  0  0  0  0  0  0  0  0  0  0  0
    6.1876   -0.2721    4.2106 H   0  0  0  0  0  0  0  0  0  0  0  0
    3.3905    2.0710    3.1383 H   0  0  0  0  0  0  0  0  0  0  0  0
    4.1401    1.3093    4.5505 H   0  0  0  0  0  0  0  0  0  0  0  0
    3.2433    0.3283    3.3969 H   0  0  0  0  0  0  0  0  0  0  0  0
    6.0963    2.5315    0.5442 H   0  0  0  0  0  0  0  0  0  0  0  0
    3.9181    3.9060   -2.1846 H   0  0  0  0  0  0  0  0  0  0  0  0
    3.8670    2.6745   -3.4509 H   0  0  0  0  0  0  0  0  0  0  0  0
    4.9097    4.0813   -3.6413 H   0  0  0  0  0  0  0  0  0  0  0  0
    7.0124    4.3534   -2.4178 H   0  0  0  0  0  0  0  0  0  0  0  0
    7.5071    3.2430   -1.1405 H   0  0  0  0  0  0  0  0  0  0  0  0
    6.1216    4.3272   -0.8966 H   0  0  0  0  0  0  0  0  0  0  0  0
    6.9435    2.4953   -4.0042 H   0  0  0  0  0  0  0  0  0  0  0  0
    7.3097    1.2583   -2.7911 H   0  0  0  0  0  0  0  0  0  0  0  0
    5.8741    1.1093   -3.8110 H   0  0  0  0  0  0  0  0  0  0  0  0
    3.9797    0.5055   -2.6018 H   0  0  0  0  0  0  0  0  0  0  0  0
    4.3997   -2.7596   -1.3357 H   0  0  0  0  0  0  0  0  0  0  0  0
   -0.7598   -4.5286   -2.3451 H   0  0  0  0  0  0  0  0  0  0  0  0
    0.2719   -6.6789   -2.8268 H   0  0  0  0  0  0  0  0  0  0  0  0
    2.7355   -6.9520   -2.6892 H   0  0  0  0  0  0  0  0  0  0  0  0
    4.1441   -5.0492   -2.0347 H   0  0  0  0  0  0  0  0  0  0  0  0
  2  1  2  0  0  0  0
  3  2  1  0  0  0  0
  3 54  1  0  0  0  0
  4  2  1  0  0  0  0
  5  4  1  0  0  0  0
  6  5  1  0  0  0  0
  6  7  1  0  0  0  0
  7  8  1  0  0  0  0
  8 55  1  0  0  0  0
  8  9  2  0  0  0  0
  9 10  1  0  0  0  0
 10 11  1  0  0  0  0
 10 13  1  0  0  0  0
 11 58  1  0  0  0  0
 11 57  1  0  0  0  0
 12 10  1  0  0  0  0
 12 60  1  0  0  0  0
 13 63  1  0  0  0  0
 13 62  1  0  0  0  0
 14  9  1  0  0  0  0
 14 65  1  0  0  0  0
 15 14  2  0  0  0  0
 16 15  1  0  0  0  0
 16 19  1  0  0  0  0
 17 16  1  0  0  0  0
 17 67  1  0  0  0  0
 18 71  1  0  0  0  0
 18 16  1  0  0  0  0
 19 73  1  0  0  0  0
 19 72  1  0  0  0  0
 20  7  2  0  0  0  0
 20 15  1  0  0  0  0
 21  6  2  0  0  0  0
 22 23  1  0  0  0  0
 22 21  1  0  0  0  0
 23 28  1  0  0  0  0
 24 23  2  0  0  0  0
 25 24  1  0  0  0  0
 26 25  2  0  0  0  0
 26 27  1  0  0  0  0
 27 22  2  0  0  0  0
 28 29  1  0  0  0  0
 28  5  2  0  0  0  0
 29 30  2  0  0  0  0
 30 32  1  0  0  0  0
 30 31  1  0  0  0  0
 31  2  1  0  0  0  0
 32 33  1  0  0  0  0
 33 34  2  0  0  0  0
 34 35  1  0  0  0  0
 34 81  1  0  0  0  0
 35 36  1  0  0  0  0
 36 37  1  0  0  0  0
 36 38  1  0  0  0  0
 36 39  1  0  0  0  0
 37 84  1  0  0  0  0
 38 87  1  0  0  0  0
 39 89  1  0  0  0  0
 40 91  1  0  0  0  0
 40 35  2  0  0  0  0
 41 40  1  0  0  0  0
 42 44  1  0  0  0  0
 42 41  1  0  0  0  0
 43 42  1  0  0  0  0
 43 92  1  0  0  0  0
 44 96  1  0  0  0  0
 44 97  1  0  0  0  0
 45 99  1  0  0  0  0
 45 42  1  0  0  0  0
 46 41  2  0  0  0  0
 46 33  1  0  0  0  0
 47102  1  0  0  0  0
 47 32  2  0  0  0  0
 48 47  1  0  0  0  0
 49 48  1  0  0  0  0
 49 29  1  0  0  0  0
 50 49  2  0  0  0  0
 51 52  2  0  0  0  0
 51 50  1  0  0  0  0
 52 53  1  0  0  0  0
 53106  1  0  0  0  0
 53 48  2  0  0  0  0
 56 11  1  0  0  0  0
 59 12  1  0  0  0  0
 61 12  1  0  0  0  0
 64 13  1  0  0  0  0
 66 17  1  0  0  0  0
 68 17  1  0  0  0  0
 69 18  1  0  0  0  0
 70 18  1  0  0  0  0
 74 19  1  0  0  0  0
 75 20  1  0  0  0  0
 76 21  1  0  0  0  0
 77 24  1  0  0  0  0
 78 25  1  0  0  0  0
 79 26  1  0  0  0  0
 80 27  1  0  0  0  0
 82 37  1  0  0  0  0
 83 37  1  0  0  0  0
 85 38  1  0  0  0  0
 86 38  1  0  0  0  0
 88 39  1  0  0  0  0
 90 39  1  0  0  0  0
 93 43  1  0  0  0  0
 94 43  1  0  0  0  0
 95 44  1  0  0  0  0
 98 45  1  0  0  0  0
100 45  1  0  0  0  0
101 46  1  0  0  0  0
103 50  1  0  0  0  0
104 51  1  0  0  0  0
105 52  1  0  0  0  0
M  END
$$$$
