O=P1(O)OC2=C(CC3=CC=C(OC)C=C3)C=C4C(CCCC4)=C2C5=C(O1)C(CC6=CC=C(OC)C=C6)=CC7=C5CCCC7
 OpenBabel09032010373D

 80 86  0  0  0  0  0  0  0  0999 V2000
    0.8004    2.8152    3.1087 O   0  0  0  0  0  0  0  0  0  0  0  0
    0.3328    2.4767    1.7264 P   0  0  0  0  0  0  0  0  0  0  0  0
   -0.1184    3.8188    0.9597 O   0  0  0  0  0  0  0  0  0  0  0  0
    1.4630    1.8609    0.7552 O   0  0  0  0  0  0  0  0  0  0  0  0
    1.7206    0.5185    0.8957 C   0  0  0  0  0  0  0  0  0  0  0  0
    2.9576    0.1432    1.4377 C   0  0  0  0  0  0  0  0  0  0  0  0
    4.0101    1.1560    1.8323 C   0  0  0  0  0  0  0  0  0  0  0  0
    5.1766    1.2267    0.8722 C   0  0  0  0  0  0  0  0  0  0  0  0
    5.0057    1.7340   -0.4232 C   0  0  0  0  0  0  0  0  0  0  0  0
    6.0825    1.8004   -1.3150 C   0  0  0  0  0  0  0  0  0  0  0  0
    7.3466    1.3624   -0.9219 C   0  0  0  0  0  0  0  0  0  0  0  0
    8.4783    1.3723   -1.6900 O   0  0  0  0  0  0  0  0  0  0  0  0
    8.3492    1.8688   -3.0161 C   0  0  0  0  0  0  0  0  0  0  0  0
    7.5216    0.8583    0.3685 C   0  0  0  0  0  0  0  0  0  0  0  0
    6.4483    0.7890    1.2603 C   0  0  0  0  0  0  0  0  0  0  0  0
    3.2142   -1.2186    1.6092 C   0  0  0  0  0  0  0  0  0  0  0  0
    2.2506   -2.1849    1.2914 C   0  0  0  0  0  0  0  0  0  0  0  0
    1.0029   -1.7848    0.7573 C   0  0  0  0  0  0  0  0  0  0  0  0
   -0.0868   -2.8304    0.5501 C   0  0  0  0  0  0  0  0  0  0  0  0
    0.1533   -4.1352    1.3073 C   0  0  0  0  0  0  0  0  0  0  0  0
    1.5686   -4.6251    1.0513 C   0  0  0  0  0  0  0  0  0  0  0  0
    2.5719   -3.6264    1.6149 C   0  0  0  0  0  0  0  0  0  0  0  0
    0.7415   -0.4071    0.4677 C   0  0  0  0  0  0  0  0  0  0  0  0
   -0.4499    0.0504   -0.1970 C   0  0  0  0  0  0  0  0  0  0  0  0
   -1.3191    0.9765    0.4343 C   0  0  0  0  0  0  0  0  0  0  0  0
   -0.9652    1.5247    1.6457 O   0  0  0  0  0  0  0  0  0  0  0  0
   -2.5727    1.3353   -0.0868 C   0  0  0  0  0  0  0  0  0  0  0  0
   -3.5104    2.2812    0.6356 C   0  0  0  0  0  0  0  0  0  0  0  0
   -4.8597    1.6804    0.9705 C   0  0  0  0  0  0  0  0  0  0  0  0
   -4.9651    0.6444    1.9065 C   0  0  0  0  0  0  0  0  0  0  0  0
   -6.2113    0.0886    2.2078 C   0  0  0  0  0  0  0  0  0  0  0  0
   -7.3711    0.5542    1.5847 C   0  0  0  0  0  0  0  0  0  0  0  0
   -8.5218   -0.0787    1.9679 O   0  0  0  0  0  0  0  0  0  0  0  0
   -9.7276    0.3399    1.3405 C   0  0  0  0  0  0  0  0  0  0  0  0
   -7.2738    1.5898    0.6559 C   0  0  0  0  0  0  0  0  0  0  0  0
   -6.0267    2.1494    0.3518 C   0  0  0  0  0  0  0  0  0  0  0  0
   -2.9455    0.8114   -1.3270 C   0  0  0  0  0  0  0  0  0  0  0  0
   -2.0822   -0.0154   -2.0546 C   0  0  0  0  0  0  0  0  0  0  0  0
   -0.8316   -0.3874   -1.5043 C   0  0  0  0  0  0  0  0  0  0  0  0
    0.1819   -1.0671   -2.4187 C   0  0  0  0  0  0  0  0  0  0  0  0
   -0.4532   -1.8597   -3.5574 C   0  0  0  0  0  0  0  0  0  0  0  0
   -1.4329   -0.9804   -4.3161 C   0  0  0  0  0  0  0  0  0  0  0  0
   -2.5584   -0.5291   -3.3945 C   0  0  0  0  0  0  0  0  0  0  0  0
    0.2712    4.5915    1.4083 H   0  0  0  0  0  0  0  0  0  0  0  0
    3.5824    2.1609    1.9333 H   0  0  0  0  0  0  0  0  0  0  0  0
    4.3653    0.9069    2.8416 H   0  0  0  0  0  0  0  0  0  0  0  0
    4.0258    2.0776   -0.7495 H   0  0  0  0  0  0  0  0  0  0  0  0
    5.8956    2.1973   -2.3068 H   0  0  0  0  0  0  0  0  0  0  0  0
    8.0452    2.9208   -3.0159 H   0  0  0  0  0  0  0  0  0  0  0  0
    7.6558    1.2561   -3.6016 H   0  0  0  0  0  0  0  0  0  0  0  0
    9.3320    1.8068   -3.4933 H   0  0  0  0  0  0  0  0  0  0  0  0
    8.5043    0.5152    0.6823 H   0  0  0  0  0  0  0  0  0  0  0  0
    6.6158    0.3907    2.2581 H   0  0  0  0  0  0  0  0  0  0  0  0
    4.1697   -1.5342    2.0267 H   0  0  0  0  0  0  0  0  0  0  0  0
   -1.0535   -2.4295    0.8770 H   0  0  0  0  0  0  0  0  0  0  0  0
   -0.1647   -3.0696   -0.5144 H   0  0  0  0  0  0  0  0  0  0  0  0
   -0.5727   -4.8882    0.9808 H   0  0  0  0  0  0  0  0  0  0  0  0
   -0.0013   -3.9825    2.3829 H   0  0  0  0  0  0  0  0  0  0  0  0
    1.7281   -4.7500   -0.0272 H   0  0  0  0  0  0  0  0  0  0  0  0
    1.7232   -5.6059    1.5146 H   0  0  0  0  0  0  0  0  0  0  0  0
    2.5990   -3.7277    2.7076 H   0  0  0  0  0  0  0  0  0  0  0  0
    3.5700   -3.8767    1.2354 H   0  0  0  0  0  0  0  0  0  0  0  0
   -3.6381    3.1722    0.0063 H   0  0  0  0  0  0  0  0  0  0  0  0
   -3.0727    2.6542    1.5691 H   0  0  0  0  0  0  0  0  0  0  0  0
   -4.0767    0.2602    2.4034 H   0  0  0  0  0  0  0  0  0  0  0  0
   -6.2769   -0.7176    2.9343 H   0  0  0  0  0  0  0  0  0  0  0  0
  -10.5430   -0.2679    1.7443 H   0  0  0  0  0  0  0  0  0  0  0  0
   -9.6896    0.1708    0.2593 H   0  0  0  0  0  0  0  0  0  0  0  0
   -9.9479    1.3877    1.5700 H   0  0  0  0  0  0  0  0  0  0  0  0
   -8.1467    1.9869    0.1495 H   0  0  0  0  0  0  0  0  0  0  0  0
   -5.9748    2.9557   -0.3767 H   0  0  0  0  0  0  0  0  0  0  0  0
   -3.9159    1.0709   -1.7481 H   0  0  0  0  0  0  0  0  0  0  0  0
    0.8553   -1.7366   -1.8825 H   0  0  0  0  0  0  0  0  0  0  0  0
    0.8122   -0.2744   -2.8441 H   0  0  0  0  0  0  0  0  0  0  0  0
   -0.9704   -2.7425   -3.1613 H   0  0  0  0  0  0  0  0  0  0  0  0
    0.3287   -2.2187   -4.2360 H   0  0  0  0  0  0  0  0  0  0  0  0
   -1.8499   -1.5253   -5.1704 H   0  0  0  0  0  0  0  0  0  0  0  0
   -0.9069   -0.1056   -4.7190 H   0  0  0  0  0  0  0  0  0  0  0  0
   -3.1384    0.2466   -3.9093 H   0  0  0  0  0  0  0  0  0  0  0  0
   -3.2345   -1.3732   -3.2076 H   0  0  0  0  0  0  0  0  0  0  0  0
  2  1  2  0  0  0  0
  3 44  1  0  0  0  0
  3  2  1  0  0  0  0
  4  5  1  0  0  0  0
  4  2  1  0  0  0  0
  5  6  2  0  0  0  0
  6 16  1  0  0  0  0
  6  7  1  0  0  0  0
  7 45  1  0  0  0  0
  7 46  1  0  0  0  0
  8 15  1  0  0  0  0
  8  7  1  0  0  0  0
  9  8  2  0  0  0  0
 10 11  2  0  0  0  0
 10  9  1  0  0  0  0
 11 14  1  0  0  0  0
 12 11  1  0  0  0  0
 13 49  1  0  0  0  0
 13 12  1  0  0  0  0
 14 52  1  0  0  0  0
 14 15  2  0  0  0  0
 15 53  1  0  0  0  0
 16 54  1  0  0  0  0
 17 16  2  0  0  0  0
 17 22  1  0  0  0  0
 18 17  1  0  0  0  0
 19 18  1  0  0  0  0
 19 55  1  0  0  0  0
 19 20  1  0  0  0  0
 20 58  1  0  0  0  0
 21 20  1  0  0  0  0
 21 60  1  0  0  0  0
 21 22  1  0  0  0  0
 22 61  1  0  0  0  0
 23 18  2  0  0  0  0
 23  5  1  0  0  0  0
 24 25  2  0  0  0  0
 24 23  1  0  0  0  0
 25 26  1  0  0  0  0
 26  2  1  0  0  0  0
 27 25  1  0  0  0  0
 27 28  1  0  0  0  0
 28 29  1  0  0  0  0
 28 64  1  0  0  0  0
 29 30  2  0  0  0  0
 30 31  1  0  0  0  0
 30 65  1  0  0  0  0
 31 66  1  0  0  0  0
 32 33  1  0  0  0  0
 32 31  2  0  0  0  0
 34 69  1  0  0  0  0
 34 67  1  0  0  0  0
 34 33  1  0  0  0  0
 35 32  1  0  0  0  0
 36 35  2  0  0  0  0
 36 29  1  0  0  0  0
 37 27  2  0  0  0  0
 38 39  2  0  0  0  0
 38 37  1  0  0  0  0
 39 24  1  0  0  0  0
 40 73  1  0  0  0  0
 40 39  1  0  0  0  0
 41 75  1  0  0  0  0
 41 40  1  0  0  0  0
 42 41  1  0  0  0  0
 42 43  1  0  0  0  0
 43 80  1  0  0  0  0
 43 38  1  0  0  0  0
 47  9  1  0  0  0  0
 48 10  1  0  0  0  0
 50 13  1  0  0  0  0
 51 13  1  0  0  0  0
 56 19  1  0  0  0  0
 57 20  1  0  0  0  0
 59 21  1  0  0  0  0
 62 22  1  0  0  0  0
 63 28  1  0  0  0  0
 68 34  1  0  0  0  0
 70 35  1  0  0  0  0
 71 36  1  0  0  0  0
 72 37  1  0  0  0  0
 74 40  1  0  0  0  0
 76 41  1  0  0  0  0
 77 42  1  0  0  0  0
 78 42  1  0  0  0  0
 79 43  1  0  0  0  0
M  END
$$$$
