O=P1(O)OC2=C(C3=C(C=CC4=CC=CC(C=C5)=C46)C6=C5C=C3)C=C7C(C=CC=C7)=C2C8=C(O1)C(C9=CC=C(C=C%10)C%11=C9C=CC%12=CC=CC%10=C%11%12)=CC%13=C8C=CC=C%13
 OpenBabel09032010373D

 86 98  0  0  0  0  0  0  0  0999 V2000
   -0.1442   -2.7673   -0.6899 O   0  0  0  0  0  0  0  0  0  0  0  0
    0.2753   -1.3821   -0.3068 P   0  0  0  0  0  0  0  0  0  0  0  0
    1.1079   -0.6641   -1.4781 O   0  0  0  0  0  0  0  0  0  0  0  0
    1.2657   -1.3115    0.9624 O   0  0  0  0  0  0  0  0  0  0  0  0
    1.5153   -0.1005    1.5696 C   0  0  0  0  0  0  0  0  0  0  0  0
    2.8453    0.3552    1.5260 C   0  0  0  0  0  0  0  0  0  0  0  0
    3.9132   -0.4023    0.8443 C   0  0  0  0  0  0  0  0  0  0  0  0
    4.3754   -0.0710   -0.4608 C   0  0  0  0  0  0  0  0  0  0  0  0
    3.8468    0.9942   -1.2215 C   0  0  0  0  0  0  0  0  0  0  0  0
    4.3146    1.2877   -2.5041 C   0  0  0  0  0  0  0  0  0  0  0  0
    5.3358    0.5288   -3.0787 C   0  0  0  0  0  0  0  0  0  0  0  0
    5.8133    0.8144   -4.3656 C   0  0  0  0  0  0  0  0  0  0  0  0
    6.8333    0.0507   -4.9286 C   0  0  0  0  0  0  0  0  0  0  0  0
    7.3891   -1.0078   -4.2125 C   0  0  0  0  0  0  0  0  0  0  0  0
    6.9277   -1.3187   -2.9248 C   0  0  0  0  0  0  0  0  0  0  0  0
    7.4735   -2.3831   -2.1991 C   0  0  0  0  0  0  0  0  0  0  0  0
    7.0031   -2.6869   -0.9209 C   0  0  0  0  0  0  0  0  0  0  0  0
    5.8917   -0.5451   -2.3479 C   0  0  0  0  0  0  0  0  0  0  0  0
    5.4119   -0.8461   -1.0446 C   0  0  0  0  0  0  0  0  0  0  0  0
    5.9786   -1.9320   -0.3352 C   0  0  0  0  0  0  0  0  0  0  0  0
    5.5085   -2.2416    0.9436 C   0  0  0  0  0  0  0  0  0  0  0  0
    4.4911   -1.4879    1.5237 C   0  0  0  0  0  0  0  0  0  0  0  0
    3.1526    1.5547    2.1700 C   0  0  0  0  0  0  0  0  0  0  0  0
    2.1660    2.3100    2.8078 C   0  0  0  0  0  0  0  0  0  0  0  0
    0.8243    1.8439    2.8482 C   0  0  0  0  0  0  0  0  0  0  0  0
   -0.1243    2.7236    3.4308 C   0  0  0  0  0  0  0  0  0  0  0  0
    0.2341    3.9492    3.9989 C   0  0  0  0  0  0  0  0  0  0  0  0
    1.5593    4.3526    3.9885 C   0  0  0  0  0  0  0  0  0  0  0  0
    2.5173    3.5401    3.3896 C   0  0  0  0  0  0  0  0  0  0  0  0
    0.4792    0.5670    2.2711 C   0  0  0  0  0  0  0  0  0  0  0  0
   -0.8340   -0.0349    2.3885 C   0  0  0  0  0  0  0  0  0  0  0  0
   -1.5294   -0.4411    1.2254 C   0  0  0  0  0  0  0  0  0  0  0  0
   -0.9080   -0.3345    0.0023 O   0  0  0  0  0  0  0  0  0  0  0  0
   -2.8583   -0.8954    1.2267 C   0  0  0  0  0  0  0  0  0  0  0  0
   -3.5675   -1.2391   -0.0191 C   0  0  0  0  0  0  0  0  0  0  0  0
   -3.5159   -2.5690   -0.4673 C   0  0  0  0  0  0  0  0  0  0  0  0
   -4.1562   -2.9571   -1.6414 C   0  0  0  0  0  0  0  0  0  0  0  0
   -4.8680   -2.0260   -2.4017 C   0  0  0  0  0  0  0  0  0  0  0  0
   -5.5098   -2.4132   -3.5851 C   0  0  0  0  0  0  0  0  0  0  0  0
   -6.2165   -1.4852   -4.3504 C   0  0  0  0  0  0  0  0  0  0  0  0
   -4.9365   -0.6785   -1.9729 C   0  0  0  0  0  0  0  0  0  0  0  0
   -4.2879   -0.2733   -0.7773 C   0  0  0  0  0  0  0  0  0  0  0  0
   -4.3906    1.0844   -0.4032 C   0  0  0  0  0  0  0  0  0  0  0  0
   -5.1019    2.0091   -1.1717 C   0  0  0  0  0  0  0  0  0  0  0  0
   -5.7395    1.6135   -2.3494 C   0  0  0  0  0  0  0  0  0  0  0  0
   -6.4537    2.5325   -3.1322 C   0  0  0  0  0  0  0  0  0  0  0  0
   -7.0779    2.1248   -4.3088 C   0  0  0  0  0  0  0  0  0  0  0  0
   -7.0013    0.7942   -4.7152 C   0  0  0  0  0  0  0  0  0  0  0  0
   -6.2979   -0.1468   -3.9505 C   0  0  0  0  0  0  0  0  0  0  0  0
   -5.6579    0.2621   -2.7561 C   0  0  0  0  0  0  0  0  0  0  0  0
   -3.5118   -1.0121    2.4537 C   0  0  0  0  0  0  0  0  0  0  0  0
   -2.8615   -0.7116    3.6536 C   0  0  0  0  0  0  0  0  0  0  0  0
   -1.5202   -0.2414    3.6410 C   0  0  0  0  0  0  0  0  0  0  0  0
   -0.9117   -0.0498    4.9078 C   0  0  0  0  0  0  0  0  0  0  0  0
   -1.5989   -0.2444    6.1091 C   0  0  0  0  0  0  0  0  0  0  0  0
   -2.9212   -0.6576    6.0882 C   0  0  0  0  0  0  0  0  0  0  0  0
   -3.5454   -0.8957    4.8672 C   0  0  0  0  0  0  0  0  0  0  0  0
    1.7069   -1.2951   -1.9172 H   0  0  0  0  0  0  0  0  0  0  0  0
    3.0396    1.6101   -0.8282 H   0  0  0  0  0  0  0  0  0  0  0  0
    3.8664    2.1168   -3.0477 H   0  0  0  0  0  0  0  0  0  0  0  0
    5.3930    1.6373   -4.9398 H   0  0  0  0  0  0  0  0  0  0  0  0
    7.1958    0.2813   -5.9267 H   0  0  0  0  0  0  0  0  0  0  0  0
    8.1879   -1.5890   -4.6692 H   0  0  0  0  0  0  0  0  0  0  0  0
    8.2712   -2.9893   -2.6233 H   0  0  0  0  0  0  0  0  0  0  0  0
    7.4480   -3.5232   -0.3855 H   0  0  0  0  0  0  0  0  0  0  0  0
    5.9278   -3.0744    1.5037 H   0  0  0  0  0  0  0  0  0  0  0  0
    4.1430   -1.7526    2.5210 H   0  0  0  0  0  0  0  0  0  0  0  0
    4.1814    1.9136    2.1462 H   0  0  0  0  0  0  0  0  0  0  0  0
   -1.1826    2.4678    3.4390 H   0  0  0  0  0  0  0  0  0  0  0  0
   -0.5285    4.5842    4.4421 H   0  0  0  0  0  0  0  0  0  0  0  0
    1.8463    5.3040    4.4280 H   0  0  0  0  0  0  0  0  0  0  0  0
    3.5497    3.8854    3.3677 H   0  0  0  0  0  0  0  0  0  0  0  0
   -2.9529   -3.3134    0.0942 H   0  0  0  0  0  0  0  0  0  0  0  0
   -4.0824   -3.9949   -1.9583 H   0  0  0  0  0  0  0  0  0  0  0  0
   -5.4634   -3.4456   -3.9255 H   0  0  0  0  0  0  0  0  0  0  0  0
   -6.7021   -1.8191   -5.2647 H   0  0  0  0  0  0  0  0  0  0  0  0
   -3.9069    1.4466    0.5016 H   0  0  0  0  0  0  0  0  0  0  0  0
   -5.1456    3.0435   -0.8387 H   0  0  0  0  0  0  0  0  0  0  0  0
   -6.5302    3.5756   -2.8320 H   0  0  0  0  0  0  0  0  0  0  0  0
   -7.6266    2.8450   -4.9099 H   0  0  0  0  0  0  0  0  0  0  0  0
   -7.4962    0.4965   -5.6368 H   0  0  0  0  0  0  0  0  0  0  0  0
   -4.5428   -1.3652    2.4663 H   0  0  0  0  0  0  0  0  0  0  0  0
    0.1332    0.2476    4.9790 H   0  0  0  0  0  0  0  0  0  0  0  0
   -1.0924   -0.0768    7.0560 H   0  0  0  0  0  0  0  0  0  0  0  0
   -3.4621   -0.8118    7.0180 H   0  0  0  0  0  0  0  0  0  0  0  0
   -4.5774   -1.2429    4.8707 H   0  0  0  0  0  0  0  0  0  0  0  0
  1  2  2  0  0  0  0
  2 33  1  0  0  0  0
  2  4  1  0  0  0  0
  3  2  1  0  0  0  0
  4  5  1  0  0  0  0
  5 30  1  0  0  0  0
  6  5  2  0  0  0  0
  6 23  1  0  0  0  0
  7 22  2  0  0  0  0
  7  6  1  0  0  0  0
  8  7  1  0  0  0  0
  9 59  1  0  0  0  0
  9  8  2  0  0  0  0
 10  9  1  0  0  0  0
 11 10  2  0  0  0  0
 11 18  1  0  0  0  0
 12 11  1  0  0  0  0
 13 12  2  0  0  0  0
 13 14  1  0  0  0  0
 14 15  2  0  0  0  0
 15 18  1  0  0  0  0
 15 16  1  0  0  0  0
 16 17  2  0  0  0  0
 17 65  1  0  0  0  0
 17 20  1  0  0  0  0
 18 19  2  0  0  0  0
 19  8  1  0  0  0  0
 19 20  1  0  0  0  0
 20 21  2  0  0  0  0
 21 66  1  0  0  0  0
 21 22  1  0  0  0  0
 22 67  1  0  0  0  0
 23 24  2  0  0  0  0
 24 25  1  0  0  0  0
 24 29  1  0  0  0  0
 25 26  1  0  0  0  0
 26 69  1  0  0  0  0
 26 27  2  0  0  0  0
 27 70  1  0  0  0  0
 28 27  1  0  0  0  0
 28 71  1  0  0  0  0
 29 28  2  0  0  0  0
 30 31  1  0  0  0  0
 30 25  2  0  0  0  0
 31 53  2  0  0  0  0
 32 34  2  0  0  0  0
 32 31  1  0  0  0  0
 33 32  1  0  0  0  0
 34 51  1  0  0  0  0
 35 34  1  0  0  0  0
 36 35  1  0  0  0  0
 36 73  1  0  0  0  0
 37 36  2  0  0  0  0
 38 41  1  0  0  0  0
 38 37  1  0  0  0  0
 39 38  2  0  0  0  0
 40 49  2  0  0  0  0
 40 39  1  0  0  0  0
 41 42  1  0  0  0  0
 42 43  1  0  0  0  0
 42 35  2  0  0  0  0
 43 77  1  0  0  0  0
 44 78  1  0  0  0  0
 44 43  2  0  0  0  0
 45 44  1  0  0  0  0
 46 79  1  0  0  0  0
 46 45  2  0  0  0  0
 47 46  1  0  0  0  0
 48 47  2  0  0  0  0
 48 49  1  0  0  0  0
 49 50  1  0  0  0  0
 50 45  1  0  0  0  0
 50 41  2  0  0  0  0
 51 82  1  0  0  0  0
 51 52  2  0  0  0  0
 52 57  1  0  0  0  0
 53 52  1  0  0  0  0
 53 54  1  0  0  0  0
 54 83  1  0  0  0  0
 54 55  2  0  0  0  0
 55 84  1  0  0  0  0
 56 55  1  0  0  0  0
 56 85  1  0  0  0  0
 57 86  1  0  0  0  0
 57 56  2  0  0  0  0
 58  3  1  0  0  0  0
 60 10  1  0  0  0  0
 61 12  1  0  0  0  0
 62 13  1  0  0  0  0
 63 14  1  0  0  0  0
 64 16  1  0  0  0  0
 68 23  1  0  0  0  0
 72 29  1  0  0  0  0
 74 37  1  0  0  0  0
 75 39  1  0  0  0  0
 76 40  1  0  0  0  0
 80 47  1  0  0  0  0
 81 48  1  0  0  0  0
M  END
$$$$
