O=P1(O)OC2=C(C3=CC(C(C)(C)C)=CC(C(C)(C)C)=C3)C=C4C(CCCC4)=C2C5=C(O1)C(C6=CC(C(C)(C)C)=CC(C(C)(C)C)=C6)=CC7=C5CCCC7
 OpenBabel09032010373D

114120  0  0  0  0  0  0  0  0999 V2000
    0.5787   -0.7447    2.0174 O   0  0  0  0  0  0  0  0  0  0  0  0
    0.0391    0.0421    0.8635 P   0  0  0  0  0  0  0  0  0  0  0  0
   -0.5666    1.4540    1.3456 O   0  0  0  0  0  0  0  0  0  0  0  0
    1.0922    0.4563   -0.2862 O   0  0  0  0  0  0  0  0  0  0  0  0
    1.4089   -0.5100   -1.2158 C   0  0  0  0  0  0  0  0  0  0  0  0
    2.7044   -1.0496   -1.1756 C   0  0  0  0  0  0  0  0  0  0  0  0
    3.7156   -0.5855   -0.2180 C   0  0  0  0  0  0  0  0  0  0  0  0
    3.8834   -1.2313    1.0140 C   0  0  0  0  0  0  0  0  0  0  0  0
    4.8452   -0.8099    1.9492 C   0  0  0  0  0  0  0  0  0  0  0  0
    4.9840   -1.5464    3.2937 C   0  0  0  0  0  0  0  0  0  0  0  0
    3.6473   -1.4820    4.0643 C   0  0  0  0  0  0  0  0  0  0  0  0
    5.3521   -3.0240    3.0381 C   0  0  0  0  0  0  0  0  0  0  0  0
    6.0721   -0.9595    4.2213 C   0  0  0  0  0  0  0  0  0  0  0  0
    5.6438    0.2940    1.5980 C   0  0  0  0  0  0  0  0  0  0  0  0
    5.5092    0.9775    0.3687 C   0  0  0  0  0  0  0  0  0  0  0  0
    6.4106    2.1856    0.0547 C   0  0  0  0  0  0  0  0  0  0  0  0
    7.8916    1.7489    0.0766 C   0  0  0  0  0  0  0  0  0  0  0  0
    6.1452    2.8229   -1.3284 C   0  0  0  0  0  0  0  0  0  0  0  0
    6.1888    3.2878    1.1132 C   0  0  0  0  0  0  0  0  0  0  0  0
    4.5318    0.5135   -0.5241 C   0  0  0  0  0  0  0  0  0  0  0  0
    3.0209   -2.0599   -2.0859 C   0  0  0  0  0  0  0  0  0  0  0  0
    2.0703   -2.5482   -2.9935 C   0  0  0  0  0  0  0  0  0  0  0  0
    0.7695   -1.9909   -3.0171 C   0  0  0  0  0  0  0  0  0  0  0  0
   -0.2951   -2.6258   -3.9043 C   0  0  0  0  0  0  0  0  0  0  0  0
    0.0524   -4.0363   -4.3772 C   0  0  0  0  0  0  0  0  0  0  0  0
    1.4590   -4.0542   -4.9515 C   0  0  0  0  0  0  0  0  0  0  0  0
    2.4684   -3.7214   -3.8596 C   0  0  0  0  0  0  0  0  0  0  0  0
    0.4337   -0.8863   -2.1698 C   0  0  0  0  0  0  0  0  0  0  0  0
   -0.8228   -0.1880   -2.2314 C   0  0  0  0  0  0  0  0  0  0  0  0
   -1.6450   -0.1039   -1.0830 C   0  0  0  0  0  0  0  0  0  0  0  0
   -1.2024   -0.6494    0.1019 O   0  0  0  0  0  0  0  0  0  0  0  0
   -2.9262    0.4771   -1.0760 C   0  0  0  0  0  0  0  0  0  0  0  0
   -3.7431    0.5482    0.1460 C   0  0  0  0  0  0  0  0  0  0  0  0
   -3.9803    1.7837    0.7691 C   0  0  0  0  0  0  0  0  0  0  0  0
   -4.7274    1.8848    1.9519 C   0  0  0  0  0  0  0  0  0  0  0  0
   -4.9894    3.2306    2.6533 C   0  0  0  0  0  0  0  0  0  0  0  0
   -4.3656    4.4461    1.9302 C   0  0  0  0  0  0  0  0  0  0  0  0
   -6.5100    3.4849    2.7403 C   0  0  0  0  0  0  0  0  0  0  0  0
   -4.3959    3.1959    4.0784 C   0  0  0  0  0  0  0  0  0  0  0  0
   -5.2418    0.6888    2.4997 C   0  0  0  0  0  0  0  0  0  0  0  0
   -5.0323   -0.5717    1.9114 C   0  0  0  0  0  0  0  0  0  0  0  0
   -5.5863   -1.8760    2.5132 C   0  0  0  0  0  0  0  0  0  0  0  0
   -4.4172   -2.8258    2.8536 C   0  0  0  0  0  0  0  0  0  0  0  0
   -6.5200   -2.5635    1.4933 C   0  0  0  0  0  0  0  0  0  0  0  0
   -6.4009   -1.6727    3.8108 C   0  0  0  0  0  0  0  0  0  0  0  0
   -4.2754   -0.6111    0.7269 C   0  0  0  0  0  0  0  0  0  0  0  0
   -3.4012    1.0216   -2.2701 C   0  0  0  0  0  0  0  0  0  0  0  0
   -2.6048    1.0510   -3.4227 C   0  0  0  0  0  0  0  0  0  0  0  0
   -1.3113    0.4706   -3.4044 C   0  0  0  0  0  0  0  0  0  0  0  0
   -0.3735    0.7731   -4.5677 C   0  0  0  0  0  0  0  0  0  0  0  0
   -1.0986    1.0454   -5.8824 C   0  0  0  0  0  0  0  0  0  0  0  0
   -2.1443    2.1292   -5.6804 C   0  0  0  0  0  0  0  0  0  0  0  0
   -3.1896    1.6735   -4.6704 C   0  0  0  0  0  0  0  0  0  0  0  0
   -1.0998    1.3280    2.1514 H   0  0  0  0  0  0  0  0  0  0  0  0
    3.2332   -2.0734    1.2471 H   0  0  0  0  0  0  0  0  0  0  0  0
    2.8376   -1.9936    3.5330 H   0  0  0  0  0  0  0  0  0  0  0  0
    3.3331   -0.4437    4.2236 H   0  0  0  0  0  0  0  0  0  0  0  0
    3.7343   -1.9592    5.0475 H   0  0  0  0  0  0  0  0  0  0  0  0
    4.5754   -3.5536    2.4754 H   0  0  0  0  0  0  0  0  0  0  0  0
    5.4902   -3.5659    3.9810 H   0  0  0  0  0  0  0  0  0  0  0  0
    6.2846   -3.1049    2.4670 H   0  0  0  0  0  0  0  0  0  0  0  0
    7.0649   -1.0054    3.7587 H   0  0  0  0  0  0  0  0  0  0  0  0
    6.1310   -1.5174    5.1637 H   0  0  0  0  0  0  0  0  0  0  0  0
    5.8622    0.0853    4.4788 H   0  0  0  0  0  0  0  0  0  0  0  0
    6.3961    0.6501    2.2963 H   0  0  0  0  0  0  0  0  0  0  0  0
    8.5537    2.5839   -0.1813 H   0  0  0  0  0  0  0  0  0  0  0  0
    8.0755    0.9426   -0.6434 H   0  0  0  0  0  0  0  0  0  0  0  0
    8.2037    1.3869    1.0623 H   0  0  0  0  0  0  0  0  0  0  0  0
    6.8122    3.6753   -1.5052 H   0  0  0  0  0  0  0  0  0  0  0  0
    6.3150    2.1077   -2.1417 H   0  0  0  0  0  0  0  0  0  0  0  0
    5.1178    3.1967   -1.4103 H   0  0  0  0  0  0  0  0  0  0  0  0
    6.7927    4.1756    0.8917 H   0  0  0  0  0  0  0  0  0  0  0  0
    6.4640    2.9575    2.1208 H   0  0  0  0  0  0  0  0  0  0  0  0
    5.1377    3.5984    1.1445 H   0  0  0  0  0  0  0  0  0  0  0  0
    4.3747    1.0013   -1.4827 H   0  0  0  0  0  0  0  0  0  0  0  0
    4.0184   -2.4986   -2.0644 H   0  0  0  0  0  0  0  0  0  0  0  0
   -0.4510   -2.0039   -4.7903 H   0  0  0  0  0  0  0  0  0  0  0  0
   -1.2460   -2.6821   -3.3613 H   0  0  0  0  0  0  0  0  0  0  0  0
   -0.6701   -4.3577   -5.1357 H   0  0  0  0  0  0  0  0  0  0  0  0
   -0.0200   -4.7441   -3.5418 H   0  0  0  0  0  0  0  0  0  0  0  0
    1.5351   -3.3253   -5.7683 H   0  0  0  0  0  0  0  0  0  0  0  0
    1.6856   -5.0381   -5.3769 H   0  0  0  0  0  0  0  0  0  0  0  0
    2.5875   -4.5959   -3.2070 H   0  0  0  0  0  0  0  0  0  0  0  0
    3.4408   -3.5231   -4.3264 H   0  0  0  0  0  0  0  0  0  0  0  0
   -3.5456    2.6681    0.3085 H   0  0  0  0  0  0  0  0  0  0  0  0
   -4.5821    5.3783    2.4658 H   0  0  0  0  0  0  0  0  0  0  0  0
   -3.2747    4.3601    1.8636 H   0  0  0  0  0  0  0  0  0  0  0  0
   -4.7627    4.5590    0.9146 H   0  0  0  0  0  0  0  0  0  0  0  0
   -6.9675    3.4829    1.7438 H   0  0  0  0  0  0  0  0  0  0  0  0
   -7.0248    2.7264    3.3398 H   0  0  0  0  0  0  0  0  0  0  0  0
   -6.7224    4.4559    3.2028 H   0  0  0  0  0  0  0  0  0  0  0  0
   -4.5357    4.1564    4.5882 H   0  0  0  0  0  0  0  0  0  0  0  0
   -4.8654    2.4301    4.7055 H   0  0  0  0  0  0  0  0  0  0  0  0
   -3.3201    2.9854    4.0523 H   0  0  0  0  0  0  0  0  0  0  0  0
   -5.8219    0.7588    3.4162 H   0  0  0  0  0  0  0  0  0  0  0  0
   -3.7172   -2.3543    3.5536 H   0  0  0  0  0  0  0  0  0  0  0  0
   -3.8466   -3.1170    1.9649 H   0  0  0  0  0  0  0  0  0  0  0  0
   -4.7811   -3.7502    3.3172 H   0  0  0  0  0  0  0  0  0  0  0  0
   -5.9938   -2.8510    0.5765 H   0  0  0  0  0  0  0  0  0  0  0  0
   -6.9567   -3.4782    1.9113 H   0  0  0  0  0  0  0  0  0  0  0  0
   -7.3450   -1.9012    1.2053 H   0  0  0  0  0  0  0  0  0  0  0  0
   -7.2741   -1.0315    3.6429 H   0  0  0  0  0  0  0  0  0  0  0  0
   -6.7736   -2.6290    4.1972 H   0  0  0  0  0  0  0  0  0  0  0  0
   -5.7922   -1.2216    4.6032 H   0  0  0  0  0  0  0  0  0  0  0  0
   -4.0820   -1.5650    0.2382 H   0  0  0  0  0  0  0  0  0  0  0  0
   -4.3986    1.4594   -2.2952 H   0  0  0  0  0  0  0  0  0  0  0  0
    0.3535   -0.0199   -4.7446 H   0  0  0  0  0  0  0  0  0  0  0  0
    0.2069    1.6632   -4.2891 H   0  0  0  0  0  0  0  0  0  0  0  0
   -1.5748    0.1276   -6.2492 H   0  0  0  0  0  0  0  0  0  0  0  0
   -0.3753    1.3623   -6.6420 H   0  0  0  0  0  0  0  0  0  0  0  0
   -1.6589    3.0473   -5.3258 H   0  0  0  0  0  0  0  0  0  0  0  0
   -2.6301    2.3707   -6.6324 H   0  0  0  0  0  0  0  0  0  0  0  0
   -3.8456    0.9286   -5.1386 H   0  0  0  0  0  0  0  0  0  0  0  0
   -3.8128    2.5358   -4.4034 H   0  0  0  0  0  0  0  0  0  0  0  0
  2  3  1  0  0  0  0
  2  1  2  0  0  0  0
  3 54  1  0  0  0  0
  4  2  1  0  0  0  0
  5  6  1  0  0  0  0
  5  4  1  0  0  0  0
  6  7  1  0  0  0  0
  7  8  1  0  0  0  0
  8 55  1  0  0  0  0
  8  9  2  0  0  0  0
  9 10  1  0  0  0  0
 10 11  1  0  0  0  0
 10 13  1  0  0  0  0
 11 57  1  0  0  0  0
 11 58  1  0  0  0  0
 12 10  1  0  0  0  0
 12 60  1  0  0  0  0
 13 64  1  0  0  0  0
 13 63  1  0  0  0  0
 14  9  1  0  0  0  0
 14 65  1  0  0  0  0
 15 14  2  0  0  0  0
 16 17  1  0  0  0  0
 16 15  1  0  0  0  0
 16 19  1  0  0  0  0
 17 68  1  0  0  0  0
 18 16  1  0  0  0  0
 19 74  1  0  0  0  0
 19 73  1  0  0  0  0
 20  7  2  0  0  0  0
 20 15  1  0  0  0  0
 21 76  1  0  0  0  0
 21  6  2  0  0  0  0
 22 21  1  0  0  0  0
 23 22  2  0  0  0  0
 23 28  1  0  0  0  0
 24 78  1  0  0  0  0
 24 23  1  0  0  0  0
 25 24  1  0  0  0  0
 25 80  1  0  0  0  0
 26 25  1  0  0  0  0
 26 27  1  0  0  0  0
 27 83  1  0  0  0  0
 27 22  1  0  0  0  0
 28  5  2  0  0  0  0
 29 28  1  0  0  0  0
 29 30  2  0  0  0  0
 30 32  1  0  0  0  0
 30 31  1  0  0  0  0
 31  2  1  0  0  0  0
 32 33  1  0  0  0  0
 33 46  2  0  0  0  0
 33 34  1  0  0  0  0
 34 35  2  0  0  0  0
 35 40  1  0  0  0  0
 35 36  1  0  0  0  0
 36 38  1  0  0  0  0
 36 39  1  0  0  0  0
 37 86  1  0  0  0  0
 37 36  1  0  0  0  0
 38 91  1  0  0  0  0
 38 90  1  0  0  0  0
 39 92  1  0  0  0  0
 39 93  1  0  0  0  0
 40 95  1  0  0  0  0
 41 40  2  0  0  0  0
 41 42  1  0  0  0  0
 42 43  1  0  0  0  0
 42 45  1  0  0  0  0
 43 98  1  0  0  0  0
 43 96  1  0  0  0  0
 44100  1  0  0  0  0
 44 42  1  0  0  0  0
 45103  1  0  0  0  0
 45104  1  0  0  0  0
 46 41  1  0  0  0  0
 47 32  2  0  0  0  0
 48 49  2  0  0  0  0
 48 47  1  0  0  0  0
 49 29  1  0  0  0  0
 50108  1  0  0  0  0
 50 49  1  0  0  0  0
 51 52  1  0  0  0  0
 51 50  1  0  0  0  0
 52111  1  0  0  0  0
 52 53  1  0  0  0  0
 53114  1  0  0  0  0
 53 48  1  0  0  0  0
 56 11  1  0  0  0  0
 59 12  1  0  0  0  0
 61 12  1  0  0  0  0
 62 13  1  0  0  0  0
 66 17  1  0  0  0  0
 67 17  1  0  0  0  0
 69 18  1  0  0  0  0
 70 18  1  0  0  0  0
 71 18  1  0  0  0  0
 72 19  1  0  0  0  0
 75 20  1  0  0  0  0
 77 24  1  0  0  0  0
 79 25  1  0  0  0  0
 81 26  1  0  0  0  0
 82 26  1  0  0  0  0
 84 27  1  0  0  0  0
 85 34  1  0  0  0  0
 87 37  1  0  0  0  0
 88 37  1  0  0  0  0
 89 38  1  0  0  0  0
 94 39  1  0  0  0  0
 97 43  1  0  0  0  0
 99 44  1  0  0  0  0
101 44  1  0  0  0  0
102 45  1  0  0  0  0
105 46  1  0  0  0  0
106 47  1  0  0  0  0
107 50  1  0  0  0  0
109 51  1  0  0  0  0
110 51  1  0  0  0  0
112 52  1  0  0  0  0
113 53  1  0  0  0  0
M  END
$$$$
