O=P1(O)OC2=C(C3=CC(COC)=CC=C3)C=C4C(C=CC=C4)=C2C5=C(O1)C(C6=CC=CC(COC)=C6)=CC7=C5C=CC=C7
 OpenBabel09032010383D

 72 78  0  0  0  0  0  0  0  0999 V2000
   -1.1609    2.3631   -0.5859 O   0  0  0  0  0  0  0  0  0  0  0  0
   -0.2560    1.3907    0.1046 P   0  0  0  0  0  0  0  0  0  0  0  0
    0.8542    2.1431    0.9938 O   0  0  0  0  0  0  0  0  0  0  0  0
    0.6224    0.4704   -0.8827 O   0  0  0  0  0  0  0  0  0  0  0  0
    1.3524   -0.5685   -0.3484 C   0  0  0  0  0  0  0  0  0  0  0  0
    2.7529   -0.4412   -0.3900 C   0  0  0  0  0  0  0  0  0  0  0  0
    3.4202    0.7649   -0.9090 C   0  0  0  0  0  0  0  0  0  0  0  0
    4.2019    1.5673   -0.0584 C   0  0  0  0  0  0  0  0  0  0  0  0
    4.8376    2.7272   -0.5270 C   0  0  0  0  0  0  0  0  0  0  0  0
    5.6488    3.5848    0.4140 C   0  0  0  0  0  0  0  0  0  0  0  0
    6.8693    4.0310   -0.1791 O   0  0  0  0  0  0  0  0  0  0  0  0
    7.8800    3.0307   -0.1634 C   0  0  0  0  0  0  0  0  0  0  0  0
    4.6691    3.0949   -1.8676 C   0  0  0  0  0  0  0  0  0  0  0  0
    3.9007    2.3101   -2.7257 C   0  0  0  0  0  0  0  0  0  0  0  0
    3.2834    1.1528   -2.2497 C   0  0  0  0  0  0  0  0  0  0  0  0
    3.5160   -1.4975    0.1098 C   0  0  0  0  0  0  0  0  0  0  0  0
    2.9177   -2.6267    0.6753 C   0  0  0  0  0  0  0  0  0  0  0  0
    1.5018   -2.7373    0.7263 C   0  0  0  0  0  0  0  0  0  0  0  0
    0.9880   -3.8661    1.4147 C   0  0  0  0  0  0  0  0  0  0  0  0
    1.8119   -4.8554    1.9580 C   0  0  0  0  0  0  0  0  0  0  0  0
    3.1880   -4.7433    1.8477 C   0  0  0  0  0  0  0  0  0  0  0  0
    3.7366   -3.6324    1.2150 C   0  0  0  0  0  0  0  0  0  0  0  0
    0.6724   -1.7071    0.1504 C   0  0  0  0  0  0  0  0  0  0  0  0
   -0.7728   -1.7839    0.0752 C   0  0  0  0  0  0  0  0  0  0  0  0
   -1.5677   -0.7423    0.6184 C   0  0  0  0  0  0  0  0  0  0  0  0
   -0.9480    0.3716    1.1431 O   0  0  0  0  0  0  0  0  0  0  0  0
   -2.9673   -0.8045    0.7243 C   0  0  0  0  0  0  0  0  0  0  0  0
   -3.7584    0.2595    1.3541 C   0  0  0  0  0  0  0  0  0  0  0  0
   -4.2078    0.1297    2.6761 C   0  0  0  0  0  0  0  0  0  0  0  0
   -4.9615    1.1399    3.2746 C   0  0  0  0  0  0  0  0  0  0  0  0
   -5.2745    2.2939    2.5578 C   0  0  0  0  0  0  0  0  0  0  0  0
   -4.8461    2.4458    1.2330 C   0  0  0  0  0  0  0  0  0  0  0  0
   -5.1483    3.7076    0.4633 C   0  0  0  0  0  0  0  0  0  0  0  0
   -6.5211    4.0890    0.5806 O   0  0  0  0  0  0  0  0  0  0  0  0
   -7.3678    3.3444   -0.2859 C   0  0  0  0  0  0  0  0  0  0  0  0
   -4.0892    1.4231    0.6427 C   0  0  0  0  0  0  0  0  0  0  0  0
   -3.6145   -1.9292    0.2116 C   0  0  0  0  0  0  0  0  0  0  0  0
   -2.9048   -2.9535   -0.4202 C   0  0  0  0  0  0  0  0  0  0  0  0
   -1.4888   -2.8885   -0.5134 C   0  0  0  0  0  0  0  0  0  0  0  0
   -0.8612   -3.9257   -1.2494 C   0  0  0  0  0  0  0  0  0  0  0  0
   -1.5747   -4.9914   -1.8042 C   0  0  0  0  0  0  0  0  0  0  0  0
   -2.9510   -5.0501   -1.6576 C   0  0  0  0  0  0  0  0  0  0  0  0
   -3.6116   -4.0336   -0.9746 C   0  0  0  0  0  0  0  0  0  0  0  0
    1.2166    2.9025    0.5024 H   0  0  0  0  0  0  0  0  0  0  0  0
    4.3021    1.2875    0.9899 H   0  0  0  0  0  0  0  0  0  0  0  0
    5.8590    3.0692    1.3589 H   0  0  0  0  0  0  0  0  0  0  0  0
    5.0575    4.4751    0.6565 H   0  0  0  0  0  0  0  0  0  0  0  0
    8.7805    3.4484   -0.6219 H   0  0  0  0  0  0  0  0  0  0  0  0
    7.5748    2.1528   -0.7404 H   0  0  0  0  0  0  0  0  0  0  0  0
    8.1175    2.7420    0.8650 H   0  0  0  0  0  0  0  0  0  0  0  0
    5.1475    3.9958   -2.2483 H   0  0  0  0  0  0  0  0  0  0  0  0
    3.7817    2.6001   -3.7667 H   0  0  0  0  0  0  0  0  0  0  0  0
    2.6831    0.5535   -2.9324 H   0  0  0  0  0  0  0  0  0  0  0  0
    4.6025   -1.4224    0.0766 H   0  0  0  0  0  0  0  0  0  0  0  0
   -0.0848   -3.9879    1.5554 H   0  0  0  0  0  0  0  0  0  0  0  0
    1.3696   -5.7049    2.4716 H   0  0  0  0  0  0  0  0  0  0  0  0
    3.8360   -5.5064    2.2690 H   0  0  0  0  0  0  0  0  0  0  0  0
    4.8207   -3.5501    1.1621 H   0  0  0  0  0  0  0  0  0  0  0  0
   -3.9617   -0.7610    3.2505 H   0  0  0  0  0  0  0  0  0  0  0  0
   -5.2992    1.0303    4.3016 H   0  0  0  0  0  0  0  0  0  0  0  0
   -5.8573    3.0810    3.0325 H   0  0  0  0  0  0  0  0  0  0  0  0
   -4.8721    3.6211   -0.5945 H   0  0  0  0  0  0  0  0  0  0  0  0
   -4.5450    4.5182    0.8875 H   0  0  0  0  0  0  0  0  0  0  0  0
   -7.3372    2.2777   -0.0454 H   0  0  0  0  0  0  0  0  0  0  0  0
   -8.3929    3.6992   -0.1489 H   0  0  0  0  0  0  0  0  0  0  0  0
   -7.0832    3.5039   -1.3305 H   0  0  0  0  0  0  0  0  0  0  0  0
   -3.7426    1.5378   -0.3837 H   0  0  0  0  0  0  0  0  0  0  0  0
   -4.7005   -1.9863    0.2844 H   0  0  0  0  0  0  0  0  0  0  0  0
    0.2143   -3.9101   -1.4168 H   0  0  0  0  0  0  0  0  0  0  0  0
   -1.0488   -5.7669   -2.3549 H   0  0  0  0  0  0  0  0  0  0  0  0
   -3.5136   -5.8739   -2.0878 H   0  0  0  0  0  0  0  0  0  0  0  0
   -4.6959   -4.0834   -0.8911 H   0  0  0  0  0  0  0  0  0  0  0  0
  1  2  2  0  0  0  0
  2  3  1  0  0  0  0
  2 26  1  0  0  0  0
  4  5  1  0  0  0  0
  4  2  1  0  0  0  0
  5 23  1  0  0  0  0
  6  5  2  0  0  0  0
  6 16  1  0  0  0  0
  7  6  1  0  0  0  0
  7  8  2  0  0  0  0
  8 45  1  0  0  0  0
  9  8  1  0  0  0  0
  9 10  1  0  0  0  0
 10 47  1  0  0  0  0
 10 46  1  0  0  0  0
 11 12  1  0  0  0  0
 11 10  1  0  0  0  0
 12 50  1  0  0  0  0
 13  9  2  0  0  0  0
 14 15  2  0  0  0  0
 14 13  1  0  0  0  0
 15  7  1  0  0  0  0
 16 17  2  0  0  0  0
 17 18  1  0  0  0  0
 17 22  1  0  0  0  0
 18 19  1  0  0  0  0
 19 55  1  0  0  0  0
 19 20  2  0  0  0  0
 20 56  1  0  0  0  0
 21 20  1  0  0  0  0
 21 57  1  0  0  0  0
 22 21  2  0  0  0  0
 23 18  2  0  0  0  0
 24 23  1  0  0  0  0
 24 25  2  0  0  0  0
 25 27  1  0  0  0  0
 25 26  1  0  0  0  0
 27 28  1  0  0  0  0
 28 29  2  0  0  0  0
 29 59  1  0  0  0  0
 29 30  1  0  0  0  0
 30 60  1  0  0  0  0
 31 61  1  0  0  0  0
 31 30  2  0  0  0  0
 32 31  1  0  0  0  0
 33 34  1  0  0  0  0
 33 63  1  0  0  0  0
 33 32  1  0  0  0  0
 35 65  1  0  0  0  0
 35 64  1  0  0  0  0
 35 34  1  0  0  0  0
 36 32  2  0  0  0  0
 36 28  1  0  0  0  0
 37 68  1  0  0  0  0
 37 27  2  0  0  0  0
 38 37  1  0  0  0  0
 39 38  1  0  0  0  0
 39 24  1  0  0  0  0
 40 39  2  0  0  0  0
 41 42  2  0  0  0  0
 41 40  1  0  0  0  0
 42 43  1  0  0  0  0
 43 72  1  0  0  0  0
 43 38  2  0  0  0  0
 44  3  1  0  0  0  0
 48 12  1  0  0  0  0
 49 12  1  0  0  0  0
 51 13  1  0  0  0  0
 52 14  1  0  0  0  0
 53 15  1  0  0  0  0
 54 16  1  0  0  0  0
 58 22  1  0  0  0  0
 62 33  1  0  0  0  0
 66 35  1  0  0  0  0
 67 36  1  0  0  0  0
 69 40  1  0  0  0  0
 70 41  1  0  0  0  0
 71 42  1  0  0  0  0
M  END
$$$$
