O=P1(O)OC2=C(CC3=C(C=CC=C4)C4=CC5=C3C=CC=C5)C=C6C(C=CC=C6)=C2C7=C(O1)C(CC8=C(C=CC=C9)C9=CC%10=C8C=CC=C%10)=CC%11=C7C=CC=C%11
 OpenBabel09032010373D

 88 98  0  0  0  0  0  0  0  0999 V2000
   -0.6749    1.9219   -1.3710 O   0  0  0  0  0  0  0  0  0  0  0  0
   -1.0719    0.5590   -0.8969 P   0  0  0  0  0  0  0  0  0  0  0  0
   -2.1153   -0.1313   -1.9037 O   0  0  0  0  0  0  0  0  0  0  0  0
   -1.8077    0.5174    0.5380 O   0  0  0  0  0  0  0  0  0  0  0  0
   -2.0167   -0.6784    1.1778 C   0  0  0  0  0  0  0  0  0  0  0  0
   -3.3468   -1.0121    1.4866 C   0  0  0  0  0  0  0  0  0  0  0  0
   -4.5349   -0.0888    1.2602 C   0  0  0  0  0  0  0  0  0  0  0  0
   -4.8067    0.4218   -0.1545 C   0  0  0  0  0  0  0  0  0  0  0  0
   -4.5771    1.8044   -0.4817 C   0  0  0  0  0  0  0  0  0  0  0  0
   -4.0181    2.7694    0.3965 C   0  0  0  0  0  0  0  0  0  0  0  0
   -3.8133    4.0999    0.0186 C   0  0  0  0  0  0  0  0  0  0  0  0
   -4.1653    4.5184   -1.2531 C   0  0  0  0  0  0  0  0  0  0  0  0
   -4.7129    3.6028   -2.1452 C   0  0  0  0  0  0  0  0  0  0  0  0
   -4.9155    2.2614   -1.7779 C   0  0  0  0  0  0  0  0  0  0  0  0
   -5.4516    1.3760   -2.7163 C   0  0  0  0  0  0  0  0  0  0  0  0
   -5.6666    0.0275   -2.4212 C   0  0  0  0  0  0  0  0  0  0  0  0
   -5.3522   -0.4749   -1.1372 C   0  0  0  0  0  0  0  0  0  0  0  0
   -5.6113   -1.8511   -0.9192 C   0  0  0  0  0  0  0  0  0  0  0  0
   -6.1380   -2.6827   -1.9119 C   0  0  0  0  0  0  0  0  0  0  0  0
   -6.4323   -2.1639   -3.1616 C   0  0  0  0  0  0  0  0  0  0  0  0
   -6.1984   -0.8157   -3.4126 C   0  0  0  0  0  0  0  0  0  0  0  0
   -3.5759   -2.2183    2.1604 C   0  0  0  0  0  0  0  0  0  0  0  0
   -2.5362   -3.0952    2.4766 C   0  0  0  0  0  0  0  0  0  0  0  0
   -1.1965   -2.7345    2.1899 C   0  0  0  0  0  0  0  0  0  0  0  0
   -0.2095   -3.7126    2.4798 C   0  0  0  0  0  0  0  0  0  0  0  0
   -0.5164   -4.9424    3.0687 C   0  0  0  0  0  0  0  0  0  0  0  0
   -1.8314   -5.2473    3.3791 C   0  0  0  0  0  0  0  0  0  0  0  0
   -2.8349   -4.3301    3.0801 C   0  0  0  0  0  0  0  0  0  0  0  0
   -0.9002   -1.4528    1.6024 C   0  0  0  0  0  0  0  0  0  0  0  0
    0.4523   -0.9393    1.4891 C   0  0  0  0  0  0  0  0  0  0  0  0
    0.9530   -0.5107    0.2374 C   0  0  0  0  0  0  0  0  0  0  0  0
    0.1155   -0.5285   -0.8488 O   0  0  0  0  0  0  0  0  0  0  0  0
    2.2886   -0.1405    0.0024 C   0  0  0  0  0  0  0  0  0  0  0  0
    2.7449    0.1897   -1.4097 C   0  0  0  0  0  0  0  0  0  0  0  0
    4.1117    0.8592   -1.5553 C   0  0  0  0  0  0  0  0  0  0  0  0
    5.2836    0.0581   -1.7725 C   0  0  0  0  0  0  0  0  0  0  0  0
    5.2917   -1.3592   -1.8300 C   0  0  0  0  0  0  0  0  0  0  0  0
    6.4623   -2.0913   -2.0480 C   0  0  0  0  0  0  0  0  0  0  0  0
    7.6688   -1.4303   -2.2130 C   0  0  0  0  0  0  0  0  0  0  0  0
    7.7017   -0.0401   -2.1503 C   0  0  0  0  0  0  0  0  0  0  0  0
    6.5305    0.7063   -1.9274 C   0  0  0  0  0  0  0  0  0  0  0  0
    6.6067    2.1011   -1.8505 C   0  0  0  0  0  0  0  0  0  0  0  0
    5.4783    2.8922   -1.6065 C   0  0  0  0  0  0  0  0  0  0  0  0
    4.2114    2.2863   -1.4472 C   0  0  0  0  0  0  0  0  0  0  0  0
    3.1183    3.1506   -1.1815 C   0  0  0  0  0  0  0  0  0  0  0  0
    3.2687    4.5370   -1.0913 C   0  0  0  0  0  0  0  0  0  0  0  0
    4.5196    5.1072   -1.2614 C   0  0  0  0  0  0  0  0  0  0  0  0
    5.6164    4.2884   -1.5163 C   0  0  0  0  0  0  0  0  0  0  0  0
    3.1610   -0.1493    1.0913 C   0  0  0  0  0  0  0  0  0  0  0  0
    2.7203   -0.4725    2.3785 C   0  0  0  0  0  0  0  0  0  0  0  0
    1.3698   -0.8512    2.5986 C   0  0  0  0  0  0  0  0  0  0  0  0
    0.9967   -1.0800    3.9490 C   0  0  0  0  0  0  0  0  0  0  0  0
    1.9075   -1.0027    5.0063 C   0  0  0  0  0  0  0  0  0  0  0  0
    3.2289   -0.6737    4.7534 C   0  0  0  0  0  0  0  0  0  0  0  0
    3.6296   -0.4048    3.4480 C   0  0  0  0  0  0  0  0  0  0  0  0
   -2.7610    0.5227   -2.2281 H   0  0  0  0  0  0  0  0  0  0  0  0
   -5.4585   -0.5870    1.5892 H   0  0  0  0  0  0  0  0  0  0  0  0
   -4.4480    0.7275    1.9831 H   0  0  0  0  0  0  0  0  0  0  0  0
   -3.7011    2.5032    1.4010 H   0  0  0  0  0  0  0  0  0  0  0  0
   -3.3685    4.8005    0.7209 H   0  0  0  0  0  0  0  0  0  0  0  0
   -4.0070    5.5503   -1.5546 H   0  0  0  0  0  0  0  0  0  0  0  0
   -4.9794    3.9502   -3.1421 H   0  0  0  0  0  0  0  0  0  0  0  0
   -5.7103    1.7476   -3.7080 H   0  0  0  0  0  0  0  0  0  0  0  0
   -5.4005   -2.3145    0.0384 H   0  0  0  0  0  0  0  0  0  0  0  0
   -6.3115   -3.7348   -1.7020 H   0  0  0  0  0  0  0  0  0  0  0  0
   -6.8406   -2.8031   -3.9396 H   0  0  0  0  0  0  0  0  0  0  0  0
   -6.4364   -0.4249   -4.4001 H   0  0  0  0  0  0  0  0  0  0  0  0
   -4.5958   -2.4897    2.4324 H   0  0  0  0  0  0  0  0  0  0  0  0
    0.8350   -3.5297    2.2320 H   0  0  0  0  0  0  0  0  0  0  0  0
    0.2772   -5.6554    3.2762 H   0  0  0  0  0  0  0  0  0  0  0  0
   -2.0800   -6.2003    3.8380 H   0  0  0  0  0  0  0  0  0  0  0  0
   -3.8646   -4.5957    3.3127 H   0  0  0  0  0  0  0  0  0  0  0  0
    2.7103   -0.7289   -2.0066 H   0  0  0  0  0  0  0  0  0  0  0  0
    1.9986    0.8276   -1.8984 H   0  0  0  0  0  0  0  0  0  0  0  0
    4.3781   -1.9312   -1.6910 H   0  0  0  0  0  0  0  0  0  0  0  0
    6.4230   -3.1769   -2.0848 H   0  0  0  0  0  0  0  0  0  0  0  0
    8.5832   -1.9915   -2.3842 H   0  0  0  0  0  0  0  0  0  0  0  0
    8.6603    0.4613   -2.2735 H   0  0  0  0  0  0  0  0  0  0  0  0
    7.5761    2.5845   -1.9710 H   0  0  0  0  0  0  0  0  0  0  0  0
    2.1142    2.7596   -1.0308 H   0  0  0  0  0  0  0  0  0  0  0  0
    2.4030    5.1616   -0.8868 H   0  0  0  0  0  0  0  0  0  0  0  0
    4.6448    6.1838   -1.1923 H   0  0  0  0  0  0  0  0  0  0  0  0
    6.5920    4.7530   -1.6419 H   0  0  0  0  0  0  0  0  0  0  0  0
    4.2057    0.1236    0.9507 H   0  0  0  0  0  0  0  0  0  0  0  0
   -0.0351   -1.3148    4.2034 H   0  0  0  0  0  0  0  0  0  0  0  0
    1.5759   -1.1947    6.0231 H   0  0  0  0  0  0  0  0  0  0  0  0
    3.9446   -0.6090    5.5682 H   0  0  0  0  0  0  0  0  0  0  0  0
    4.6670   -0.1250    3.2712 H   0  0  0  0  0  0  0  0  0  0  0  0
  1  2  2  0  0  0  0
  2 32  1  0  0  0  0
  2  4  1  0  0  0  0
  3  2  1  0  0  0  0
  4  5  1  0  0  0  0
  5  6  2  0  0  0  0
  5 29  1  0  0  0  0
  6 22  1  0  0  0  0
  7  6  1  0  0  0  0
  7 57  1  0  0  0  0
  7 58  1  0  0  0  0
  8  7  1  0  0  0  0
  9  8  1  0  0  0  0
  9 10  2  0  0  0  0
 10 59  1  0  0  0  0
 11 10  1  0  0  0  0
 11 60  1  0  0  0  0
 12 11  2  0  0  0  0
 13 14  2  0  0  0  0
 13 12  1  0  0  0  0
 14  9  1  0  0  0  0
 15 16  2  0  0  0  0
 15 14  1  0  0  0  0
 16 17  1  0  0  0  0
 17 18  1  0  0  0  0
 17  8  2  0  0  0  0
 18 64  1  0  0  0  0
 19 65  1  0  0  0  0
 19 18  2  0  0  0  0
 20 19  1  0  0  0  0
 21 20  2  0  0  0  0
 21 16  1  0  0  0  0
 22 68  1  0  0  0  0
 22 23  2  0  0  0  0
 23 28  1  0  0  0  0
 24 23  1  0  0  0  0
 24 25  1  0  0  0  0
 25 26  2  0  0  0  0
 26 70  1  0  0  0  0
 26 27  1  0  0  0  0
 27 71  1  0  0  0  0
 28 72  1  0  0  0  0
 28 27  2  0  0  0  0
 29 24  2  0  0  0  0
 30 29  1  0  0  0  0
 30 51  2  0  0  0  0
 31 30  1  0  0  0  0
 32 31  1  0  0  0  0
 33 31  2  0  0  0  0
 33 49  1  0  0  0  0
 34 33  1  0  0  0  0
 35 44  1  0  0  0  0
 35 34  1  0  0  0  0
 36 35  2  0  0  0  0
 37 36  1  0  0  0  0
 37 75  1  0  0  0  0
 38 37  2  0  0  0  0
 39 40  2  0  0  0  0
 39 38  1  0  0  0  0
 40 41  1  0  0  0  0
 41 42  2  0  0  0  0
 41 36  1  0  0  0  0
 42 43  1  0  0  0  0
 43 48  2  0  0  0  0
 43 44  1  0  0  0  0
 44 45  2  0  0  0  0
 45 46  1  0  0  0  0
 45 80  1  0  0  0  0
 46 81  1  0  0  0  0
 47 82  1  0  0  0  0
 47 46  2  0  0  0  0
 48 47  1  0  0  0  0
 49 50  2  0  0  0  0
 50 51  1  0  0  0  0
 50 55  1  0  0  0  0
 51 52  1  0  0  0  0
 52 85  1  0  0  0  0
 52 53  2  0  0  0  0
 53 86  1  0  0  0  0
 54 53  1  0  0  0  0
 54 87  1  0  0  0  0
 55 54  2  0  0  0  0
 56  3  1  0  0  0  0
 61 12  1  0  0  0  0
 62 13  1  0  0  0  0
 63 15  1  0  0  0  0
 66 20  1  0  0  0  0
 67 21  1  0  0  0  0
 69 25  1  0  0  0  0
 73 34  1  0  0  0  0
 74 34  1  0  0  0  0
 76 38  1  0  0  0  0
 77 39  1  0  0  0  0
 78 40  1  0  0  0  0
 79 42  1  0  0  0  0
 83 48  1  0  0  0  0
 84 49  1  0  0  0  0
 88 55  1  0  0  0  0
M  END
$$$$
