O=P1(O)OC2=C(C3=CC=C(C)C=C3)C=C4C(C=CC=C4)=C2C5=C(O1)C(C6=CC=C(C)C=C6)=CC7=C5C=CC=C7
 OpenBabel09032010373D

 64 70  0  0  0  0  0  0  0  0999 V2000
    0.6533   -2.6460   -1.3983 O   0  0  0  0  0  0  0  0  0  0  0  0
    0.0278   -1.7378   -0.3863 P   0  0  0  0  0  0  0  0  0  0  0  0
   -0.8223   -2.5616    0.7038 O   0  0  0  0  0  0  0  0  0  0  0  0
   -1.0472   -0.7010   -0.9884 O   0  0  0  0  0  0  0  0  0  0  0  0
   -1.5450    0.2903   -0.1720 C   0  0  0  0  0  0  0  0  0  0  0  0
   -2.9052    0.1951    0.1730 C   0  0  0  0  0  0  0  0  0  0  0  0
   -3.7441   -0.9375   -0.2507 C   0  0  0  0  0  0  0  0  0  0  0  0
   -4.2477   -1.8450    0.6938 C   0  0  0  0  0  0  0  0  0  0  0  0
   -5.0302   -2.9337    0.2989 C   0  0  0  0  0  0  0  0  0  0  0  0
   -5.3188   -3.1450   -1.0528 C   0  0  0  0  0  0  0  0  0  0  0  0
   -6.1873   -4.2925   -1.4756 C   0  0  0  0  0  0  0  0  0  0  0  0
   -4.8345   -2.2364   -1.9994 C   0  0  0  0  0  0  0  0  0  0  0  0
   -4.0522   -1.1480   -1.6023 C   0  0  0  0  0  0  0  0  0  0  0  0
   -3.4488    1.2090    0.9625 C   0  0  0  0  0  0  0  0  0  0  0  0
   -2.6655    2.2669    1.4328 C   0  0  0  0  0  0  0  0  0  0  0  0
   -1.2877    2.3435    1.0921 C   0  0  0  0  0  0  0  0  0  0  0  0
   -0.5512    3.3897    1.7047 C   0  0  0  0  0  0  0  0  0  0  0  0
   -1.1447    4.3414    2.5387 C   0  0  0  0  0  0  0  0  0  0  0  0
   -2.5012    4.2702    2.8094 C   0  0  0  0  0  0  0  0  0  0  0  0
   -3.2542    3.2341    2.2653 C   0  0  0  0  0  0  0  0  0  0  0  0
   -0.6995    1.3584    0.2163 C   0  0  0  0  0  0  0  0  0  0  0  0
    0.6702    1.4117   -0.2568 C   0  0  0  0  0  0  0  0  0  0  0  0
    1.5326    0.3025   -0.0602 C   0  0  0  0  0  0  0  0  0  0  0  0
    1.0294   -0.8478    0.5086 O   0  0  0  0  0  0  0  0  0  0  0  0
    2.9084    0.3243   -0.3445 C   0  0  0  0  0  0  0  0  0  0  0  0
    3.7909   -0.8125   -0.0543 C   0  0  0  0  0  0  0  0  0  0  0  0
    4.5775   -0.8277    1.1065 C   0  0  0  0  0  0  0  0  0  0  0  0
    5.4250   -1.9044    1.3839 C   0  0  0  0  0  0  0  0  0  0  0  0
    5.4953   -2.9940    0.5100 C   0  0  0  0  0  0  0  0  0  0  0  0
    6.4241   -4.1372    0.7912 C   0  0  0  0  0  0  0  0  0  0  0  0
    4.7255   -2.9770   -0.6576 C   0  0  0  0  0  0  0  0  0  0  0  0
    3.8805   -1.8987   -0.9346 C   0  0  0  0  0  0  0  0  0  0  0  0
    3.4426    1.4828   -0.9103 C   0  0  0  0  0  0  0  0  0  0  0  0
    2.6366    2.5822   -1.2182 C   0  0  0  0  0  0  0  0  0  0  0  0
    1.2486    2.5563   -0.9165 C   0  0  0  0  0  0  0  0  0  0  0  0
    0.4932    3.6771   -1.3462 C   0  0  0  0  0  0  0  0  0  0  0  0
    1.0760    4.7814   -1.9739 C   0  0  0  0  0  0  0  0  0  0  0  0
    2.4405    4.7975   -2.2127 C   0  0  0  0  0  0  0  0  0  0  0  0
    3.2138    3.7011   -1.8424 C   0  0  0  0  0  0  0  0  0  0  0  0
   -1.3522   -3.2509    0.2635 H   0  0  0  0  0  0  0  0  0  0  0  0
   -4.0219   -1.7124    1.7507 H   0  0  0  0  0  0  0  0  0  0  0  0
   -5.4109   -3.6148    1.0567 H   0  0  0  0  0  0  0  0  0  0  0  0
   -7.2379   -3.9864   -1.4757 H   0  0  0  0  0  0  0  0  0  0  0  0
   -6.0665   -5.1441   -0.7978 H   0  0  0  0  0  0  0  0  0  0  0  0
   -5.9183   -4.6366   -2.4798 H   0  0  0  0  0  0  0  0  0  0  0  0
   -5.0616   -2.3681   -3.0552 H   0  0  0  0  0  0  0  0  0  0  0  0
   -3.6806   -0.4590   -2.3590 H   0  0  0  0  0  0  0  0  0  0  0  0
   -4.5034    1.1559    1.2319 H   0  0  0  0  0  0  0  0  0  0  0  0
    0.5230    3.4731    1.5495 H   0  0  0  0  0  0  0  0  0  0  0  0
   -0.5383    5.1293    2.9774 H   0  0  0  0  0  0  0  0  0  0  0  0
   -2.9708    5.0050    3.4574 H   0  0  0  0  0  0  0  0  0  0  0  0
   -4.3130    3.1788    2.5121 H   0  0  0  0  0  0  0  0  0  0  0  0
    4.5300    0.0031    1.8074 H   0  0  0  0  0  0  0  0  0  0  0  0
    6.0247   -1.8869    2.2908 H   0  0  0  0  0  0  0  0  0  0  0  0
    6.0302   -5.0715    0.3774 H   0  0  0  0  0  0  0  0  0  0  0  0
    7.4052   -3.9398    0.3486 H   0  0  0  0  0  0  0  0  0  0  0  0
    6.5454   -4.2859    1.8694 H   0  0  0  0  0  0  0  0  0  0  0  0
    4.7695   -3.8055   -1.3606 H   0  0  0  0  0  0  0  0  0  0  0  0
    3.2829   -1.9177   -1.8445 H   0  0  0  0  0  0  0  0  0  0  0  0
    4.5079    1.5096   -1.1390 H   0  0  0  0  0  0  0  0  0  0  0  0
   -0.5863    3.7007   -1.2071 H   0  0  0  0  0  0  0  0  0  0  0  0
    0.4560    5.6202   -2.2788 H   0  0  0  0  0  0  0  0  0  0  0  0
    2.9020    5.6510   -2.7015 H   0  0  0  0  0  0  0  0  0  0  0  0
    4.2801    3.7214   -2.0608 H   0  0  0  0  0  0  0  0  0  0  0  0
  1  2  2  0  0  0  0
  2 24  1  0  0  0  0
  2  3  1  0  0  0  0
  4  2  1  0  0  0  0
  4  5  1  0  0  0  0
  5  6  2  0  0  0  0
  5 21  1  0  0  0  0
  6 14  1  0  0  0  0
  7  6  1  0  0  0  0
  7  8  2  0  0  0  0
  8 41  1  0  0  0  0
  9  8  1  0  0  0  0
  9 42  1  0  0  0  0
 10  9  2  0  0  0  0
 11 10  1  0  0  0  0
 11 44  1  0  0  0  0
 12 13  2  0  0  0  0
 12 10  1  0  0  0  0
 13  7  1  0  0  0  0
 14 48  1  0  0  0  0
 14 15  2  0  0  0  0
 15 20  1  0  0  0  0
 16 15  1  0  0  0  0
 16 17  1  0  0  0  0
 17 18  2  0  0  0  0
 18 19  1  0  0  0  0
 18 50  1  0  0  0  0
 19 51  1  0  0  0  0
 20 52  1  0  0  0  0
 20 19  2  0  0  0  0
 21 16  2  0  0  0  0
 22 23  2  0  0  0  0
 22 21  1  0  0  0  0
 23 24  1  0  0  0  0
 25 23  1  0  0  0  0
 25 26  1  0  0  0  0
 26 27  2  0  0  0  0
 27 28  1  0  0  0  0
 27 53  1  0  0  0  0
 28 54  1  0  0  0  0
 29 30  1  0  0  0  0
 29 28  2  0  0  0  0
 30 57  1  0  0  0  0
 31 29  1  0  0  0  0
 32 31  2  0  0  0  0
 32 26  1  0  0  0  0
 33 25  2  0  0  0  0
 34 35  1  0  0  0  0
 34 33  1  0  0  0  0
 35 22  1  0  0  0  0
 36 61  1  0  0  0  0
 36 35  2  0  0  0  0
 37 36  1  0  0  0  0
 38 37  2  0  0  0  0
 38 39  1  0  0  0  0
 39 34  2  0  0  0  0
 40  3  1  0  0  0  0
 43 11  1  0  0  0  0
 45 11  1  0  0  0  0
 46 12  1  0  0  0  0
 47 13  1  0  0  0  0
 49 17  1  0  0  0  0
 55 30  1  0  0  0  0
 56 30  1  0  0  0  0
 58 31  1  0  0  0  0
 59 32  1  0  0  0  0
 60 33  1  0  0  0  0
 62 37  1  0  0  0  0
 63 38  1  0  0  0  0
 64 39  1  0  0  0  0
M  END
$$$$
