O=P1(O)OC2=C(CC3=C(C=CC=C4)C4=CC5=C3C=CC=C5)C=C6C(C=CC=C6)=C2C7=C(O1)C(CC8=C(C=CC=C9)C9=CC%10=C8C=CC=C%10)=CC%11=C7C=CC=C%11
 OpenBabel09032010373D

 88 98  0  0  0  0  0  0  0  0999 V2000
    0.9415    3.5594   -0.6993 O   0  0  0  0  0  0  0  0  0  0  0  0
    0.6377    2.0959   -0.8049 P   0  0  0  0  0  0  0  0  0  0  0  0
    0.3785    1.6268   -2.3217 O   0  0  0  0  0  0  0  0  0  0  0  0
   -0.6935    1.6357   -0.0237 O   0  0  0  0  0  0  0  0  0  0  0  0
   -0.9198    0.3058    0.2449 C   0  0  0  0  0  0  0  0  0  0  0  0
   -2.0753   -0.2527   -0.3309 C   0  0  0  0  0  0  0  0  0  0  0  0
   -2.9426    0.5586   -1.2799 C   0  0  0  0  0  0  0  0  0  0  0  0
   -4.4421    0.2605   -1.2416 C   0  0  0  0  0  0  0  0  0  0  0  0
   -5.0457   -0.5552   -2.2579 C   0  0  0  0  0  0  0  0  0  0  0  0
   -4.3431   -1.1791   -3.3217 C   0  0  0  0  0  0  0  0  0  0  0  0
   -4.9869   -1.9577   -4.2885 C   0  0  0  0  0  0  0  0  0  0  0  0
   -6.3579   -2.1446   -4.2232 C   0  0  0  0  0  0  0  0  0  0  0  0
   -7.0789   -1.5577   -3.1876 C   0  0  0  0  0  0  0  0  0  0  0  0
   -6.4419   -0.7746   -2.2085 C   0  0  0  0  0  0  0  0  0  0  0  0
   -7.2028   -0.2150   -1.1766 C   0  0  0  0  0  0  0  0  0  0  0  0
   -6.6243    0.5581   -0.1647 C   0  0  0  0  0  0  0  0  0  0  0  0
   -5.2337    0.8066   -0.1755 C   0  0  0  0  0  0  0  0  0  0  0  0
   -4.7173    1.5903    0.8882 C   0  0  0  0  0  0  0  0  0  0  0  0
   -5.5322    2.1036    1.9011 C   0  0  0  0  0  0  0  0  0  0  0  0
   -6.8945    1.8507    1.8847 C   0  0  0  0  0  0  0  0  0  0  0  0
   -7.4353    1.0816    0.8580 C   0  0  0  0  0  0  0  0  0  0  0  0
   -2.3599   -1.5906   -0.0535 C   0  0  0  0  0  0  0  0  0  0  0  0
   -1.5307   -2.3588    0.7685 C   0  0  0  0  0  0  0  0  0  0  0  0
   -0.3733   -1.7827    1.3558 C   0  0  0  0  0  0  0  0  0  0  0  0
    0.4600   -2.6691    2.0875 C   0  0  0  0  0  0  0  0  0  0  0  0
    0.1391   -4.0144    2.2903 C   0  0  0  0  0  0  0  0  0  0  0  0
   -1.0256   -4.5328    1.7495 C   0  0  0  0  0  0  0  0  0  0  0  0
   -1.8496   -3.7108    0.9862 C   0  0  0  0  0  0  0  0  0  0  0  0
   -0.0699   -0.3878    1.1474 C   0  0  0  0  0  0  0  0  0  0  0  0
    1.0333    0.2901    1.8040 C   0  0  0  0  0  0  0  0  0  0  0  0
    2.0065    0.9672    1.0292 C   0  0  0  0  0  0  0  0  0  0  0  0
    1.7962    1.0908   -0.3198 O   0  0  0  0  0  0  0  0  0  0  0  0
    3.2104    1.4706    1.5481 C   0  0  0  0  0  0  0  0  0  0  0  0
    4.2942    2.1127    0.6916 C   0  0  0  0  0  0  0  0  0  0  0  0
    4.7119    1.3258   -0.5547 C   0  0  0  0  0  0  0  0  0  0  0  0
    5.4055    0.0761   -0.3974 C   0  0  0  0  0  0  0  0  0  0  0  0
    5.8580   -0.4441    0.8419 C   0  0  0  0  0  0  0  0  0  0  0  0
    6.5218   -1.6702    0.9431 C   0  0  0  0  0  0  0  0  0  0  0  0
    6.7649   -2.4185   -0.1969 C   0  0  0  0  0  0  0  0  0  0  0  0
    6.3405   -1.9389   -1.4325 C   0  0  0  0  0  0  0  0  0  0  0  0
    5.6670   -0.7086   -1.5436 C   0  0  0  0  0  0  0  0  0  0  0  0
    5.2446   -0.2674   -2.8009 C   0  0  0  0  0  0  0  0  0  0  0  0
    4.5943    0.9591   -2.9749 C   0  0  0  0  0  0  0  0  0  0  0  0
    4.3542    1.7998   -1.8644 C   0  0  0  0  0  0  0  0  0  0  0  0
    3.7534    3.0558   -2.1453 C   0  0  0  0  0  0  0  0  0  0  0  0
    3.3579    3.4318   -3.4321 C   0  0  0  0  0  0  0  0  0  0  0  0
    3.5527    2.5625   -4.4900 C   0  0  0  0  0  0  0  0  0  0  0  0
    4.1769    1.3398   -4.2624 C   0  0  0  0  0  0  0  0  0  0  0  0
    3.3947    1.4117    2.9319 C   0  0  0  0  0  0  0  0  0  0  0  0
    2.4305    0.8509    3.7752 C   0  0  0  0  0  0  0  0  0  0  0  0
    1.2427    0.2959    3.2300 C   0  0  0  0  0  0  0  0  0  0  0  0
    0.2883   -0.1851    4.1622 C   0  0  0  0  0  0  0  0  0  0  0  0
    0.5126   -0.1744    5.5414 C   0  0  0  0  0  0  0  0  0  0  0  0
    1.6987    0.3372    6.0421 C   0  0  0  0  0  0  0  0  0  0  0  0
    2.6482    0.8519    5.1639 C   0  0  0  0  0  0  0  0  0  0  0  0
    1.1099    1.9272   -2.8963 H   0  0  0  0  0  0  0  0  0  0  0  0
   -2.8299    1.6335   -1.0901 H   0  0  0  0  0  0  0  0  0  0  0  0
   -2.5326    0.4461   -2.2882 H   0  0  0  0  0  0  0  0  0  0  0  0
   -3.2652   -1.0829   -3.4170 H   0  0  0  0  0  0  0  0  0  0  0  0
   -4.4097   -2.4167   -5.0869 H   0  0  0  0  0  0  0  0  0  0  0  0
   -6.8663   -2.7476   -4.9704 H   0  0  0  0  0  0  0  0  0  0  0  0
   -8.1545   -1.7199   -3.1484 H   0  0  0  0  0  0  0  0  0  0  0  0
   -8.2772   -0.3942   -1.1547 H   0  0  0  0  0  0  0  0  0  0  0  0
   -3.6552    1.8139    0.9550 H   0  0  0  0  0  0  0  0  0  0  0  0
   -5.0941    2.6975    2.6991 H   0  0  0  0  0  0  0  0  0  0  0  0
   -7.5357    2.2465    2.6672 H   0  0  0  0  0  0  0  0  0  0  0  0
   -8.5063    0.8896    0.8628 H   0  0  0  0  0  0  0  0  0  0  0  0
   -3.2385   -2.0561   -0.4980 H   0  0  0  0  0  0  0  0  0  0  0  0
    1.4022   -2.3204    2.5062 H   0  0  0  0  0  0  0  0  0  0  0  0
    0.8087   -4.6492    2.8644 H   0  0  0  0  0  0  0  0  0  0  0  0
   -1.2858   -5.5766    1.9025 H   0  0  0  0  0  0  0  0  0  0  0  0
   -2.7490   -4.1408    0.5469 H   0  0  0  0  0  0  0  0  0  0  0  0
    5.2027    2.2768    1.2871 H   0  0  0  0  0  0  0  0  0  0  0  0
    3.9547    3.1249    0.4637 H   0  0  0  0  0  0  0  0  0  0  0  0
    5.7050    0.1044    1.7661 H   0  0  0  0  0  0  0  0  0  0  0  0
    6.8453   -2.0333    1.9148 H   0  0  0  0  0  0  0  0  0  0  0  0
    7.2829   -3.3711   -0.1286 H   0  0  0  0  0  0  0  0  0  0  0  0
    6.5425   -2.5406   -2.3171 H   0  0  0  0  0  0  0  0  0  0  0  0
    5.4387   -0.8950   -3.6709 H   0  0  0  0  0  0  0  0  0  0  0  0
    3.5674    3.7838   -1.3598 H   0  0  0  0  0  0  0  0  0  0  0  0
    2.8944    4.4027   -3.5929 H   0  0  0  0  0  0  0  0  0  0  0  0
    3.2361    2.8369   -5.4917 H   0  0  0  0  0  0  0  0  0  0  0  0
    4.3368    0.6745   -5.1081 H   0  0  0  0  0  0  0  0  0  0  0  0
    4.3043    1.8274    3.3640 H   0  0  0  0  0  0  0  0  0  0  0  0
   -0.6701   -0.5716    3.8189 H   0  0  0  0  0  0  0  0  0  0  0  0
   -0.2463   -0.5616    6.2162 H   0  0  0  0  0  0  0  0  0  0  0  0
    1.8803    0.3508    7.1132 H   0  0  0  0  0  0  0  0  0  0  0  0
    3.5644    1.2681    5.5787 H   0  0  0  0  0  0  0  0  0  0  0  0
  2  1  2  0  0  0  0
  2 32  1  0  0  0  0
  2  4  1  0  0  0  0
  3  2  1  0  0  0  0
  4  5  1  0  0  0  0
  5 29  2  0  0  0  0
  6 22  2  0  0  0  0
  6  5  1  0  0  0  0
  7  8  1  0  0  0  0
  7 57  1  0  0  0  0
  7  6  1  0  0  0  0
  8 17  2  0  0  0  0
  9 14  1  0  0  0  0
  9  8  1  0  0  0  0
 10  9  2  0  0  0  0
 11 12  2  0  0  0  0
 11 10  1  0  0  0  0
 12 13  1  0  0  0  0
 13 62  1  0  0  0  0
 13 14  2  0  0  0  0
 14 15  1  0  0  0  0
 15 63  1  0  0  0  0
 15 16  2  0  0  0  0
 16 21  1  0  0  0  0
 17 16  1  0  0  0  0
 17 18  1  0  0  0  0
 18 64  1  0  0  0  0
 18 19  2  0  0  0  0
 19 65  1  0  0  0  0
 20 19  1  0  0  0  0
 20 66  1  0  0  0  0
 21 67  1  0  0  0  0
 21 20  2  0  0  0  0
 22 23  1  0  0  0  0
 23 28  2  0  0  0  0
 23 24  1  0  0  0  0
 24 25  2  0  0  0  0
 25 26  1  0  0  0  0
 25 69  1  0  0  0  0
 26 70  1  0  0  0  0
 27 71  1  0  0  0  0
 27 26  2  0  0  0  0
 28 27  1  0  0  0  0
 29 24  1  0  0  0  0
 29 30  1  0  0  0  0
 30 51  2  0  0  0  0
 31 33  2  0  0  0  0
 31 30  1  0  0  0  0
 32 31  1  0  0  0  0
 33 49  1  0  0  0  0
 34 73  1  0  0  0  0
 34 33  1  0  0  0  0
 35 36  1  0  0  0  0
 35 34  1  0  0  0  0
 36 37  2  0  0  0  0
 37 38  1  0  0  0  0
 37 75  1  0  0  0  0
 38 76  1  0  0  0  0
 39 77  1  0  0  0  0
 39 38  2  0  0  0  0
 40 39  1  0  0  0  0
 41 40  2  0  0  0  0
 41 36  1  0  0  0  0
 42 41  1  0  0  0  0
 43 42  2  0  0  0  0
 43 44  1  0  0  0  0
 44 35  2  0  0  0  0
 45 44  1  0  0  0  0
 45 80  1  0  0  0  0
 46 45  2  0  0  0  0
 47 48  2  0  0  0  0
 47 46  1  0  0  0  0
 48 43  1  0  0  0  0
 49 84  1  0  0  0  0
 49 50  2  0  0  0  0
 50 55  1  0  0  0  0
 51 50  1  0  0  0  0
 51 52  1  0  0  0  0
 52 53  2  0  0  0  0
 53 54  1  0  0  0  0
 53 86  1  0  0  0  0
 54 87  1  0  0  0  0
 55 88  1  0  0  0  0
 55 54  2  0  0  0  0
 56  3  1  0  0  0  0
 58  7  1  0  0  0  0
 59 10  1  0  0  0  0
 60 11  1  0  0  0  0
 61 12  1  0  0  0  0
 68 22  1  0  0  0  0
 72 28  1  0  0  0  0
 74 34  1  0  0  0  0
 78 40  1  0  0  0  0
 79 42  1  0  0  0  0
 81 46  1  0  0  0  0
 82 47  1  0  0  0  0
 83 48  1  0  0  0  0
 85 52  1  0  0  0  0
M  END
$$$$
