O=P1(O)OC2=C(C3=C(C(C)C)C=C(C(C)C)C=C3C(C)C)C=C4C(C=CC=C4)=C2C5=C(O1)[C@@]([C@@]6=C(C(C)C)C=C(C(C)C)C=C6C(C)C)=CC7=C5C=CC=C7
 OpenBabel09032010383D

112118  0  0  0  0  0  0  0  0999 V2000
   -0.7214   -1.2604    1.9045 O   0  0  0  0  0  0  0  0  0  0  0  0
   -0.0602   -0.8508    0.6272 P   0  0  0  0  0  0  0  0  0  0  0  0
    0.7555   -2.0755   -0.0190 O   0  0  0  0  0  0  0  0  0  0  0  0
    1.0592    0.2900    0.7915 O   0  0  0  0  0  0  0  0  0  0  0  0
    1.5763    0.9155   -0.3186 C   0  0  0  0  0  0  0  0  0  0  0  0
    2.9607    0.7638   -0.5339 C   0  0  0  0  0  0  0  0  0  0  0  0
    3.8141   -0.0911    0.3256 C   0  0  0  0  0  0  0  0  0  0  0  0
    4.2289    0.3687    1.6085 C   0  0  0  0  0  0  0  0  0  0  0  0
    3.8394    1.7458    2.1541 C   0  0  0  0  0  0  0  0  0  0  0  0
    3.0280    1.6361    3.4496 C   0  0  0  0  0  0  0  0  0  0  0  0
    5.0718    2.6349    2.3564 C   0  0  0  0  0  0  0  0  0  0  0  0
    5.0485   -0.4564    2.4059 C   0  0  0  0  0  0  0  0  0  0  0  0
    5.4881   -1.7085    1.9698 C   0  0  0  0  0  0  0  0  0  0  0  0
    6.3854   -2.5835    2.8275 C   0  0  0  0  0  0  0  0  0  0  0  0
    7.7373   -1.9151    3.0897 C   0  0  0  0  0  0  0  0  0  0  0  0
    5.7040   -2.9720    4.1422 C   0  0  0  0  0  0  0  0  0  0  0  0
    5.0935   -2.1443    0.7023 C   0  0  0  0  0  0  0  0  0  0  0  0
    4.2546   -1.3719   -0.1279 C   0  0  0  0  0  0  0  0  0  0  0  0
    3.8852   -1.9245   -1.5098 C   0  0  0  0  0  0  0  0  0  0  0  0
    3.4841   -3.4080   -1.4947 C   0  0  0  0  0  0  0  0  0  0  0  0
    5.0404   -1.7230   -2.4970 C   0  0  0  0  0  0  0  0  0  0  0  0
    3.5406    1.4786   -1.5834 C   0  0  0  0  0  0  0  0  0  0  0  0
    2.7691    2.2540   -2.4500 C   0  0  0  0  0  0  0  0  0  0  0  0
    1.3713    2.3850   -2.2365 C   0  0  0  0  0  0  0  0  0  0  0  0
    0.6553    3.1049   -3.2276 C   0  0  0  0  0  0  0  0  0  0  0  0
    1.2822    3.7148   -4.3177 C   0  0  0  0  0  0  0  0  0  0  0  0
    2.6551    3.6123   -4.4680 C   0  0  0  0  0  0  0  0  0  0  0  0
    3.3925    2.8810   -3.5420 C   0  0  0  0  0  0  0  0  0  0  0  0
    0.7473    1.7676   -1.0912 C   0  0  0  0  0  0  0  0  0  0  0  0
   -0.6363    1.9993   -0.7175 C   0  0  0  0  0  0  0  0  0  0  0  0
   -1.5181    0.9079   -0.5172 C   0  0  0  0  0  0  0  0  0  0  0  0
   -1.0222   -0.3738   -0.5703 O   0  0  0  0  0  0  0  0  0  0  0  0
   -2.9101    1.0489   -0.3665 C   0  0  0  0  0  0  0  0  0  0  0  0
   -3.8301   -0.1093   -0.2961 C   0  0  0  0  0  0  0  0  0  0  0  0
   -4.3550   -0.5512    0.9532 C   0  0  0  0  0  0  0  0  0  0  0  0
   -3.9731    0.1111    2.2806 C   0  0  0  0  0  0  0  0  0  0  0  0
   -5.0611    1.0938    2.7258 C   0  0  0  0  0  0  0  0  0  0  0  0
   -3.6961   -0.8936    3.4095 C   0  0  0  0  0  0  0  0  0  0  0  0
   -5.2798   -1.6159    0.9716 C   0  0  0  0  0  0  0  0  0  0  0  0
   -5.6754   -2.2770   -0.1945 C   0  0  0  0  0  0  0  0  0  0  0  0
   -6.6594   -3.4329   -0.1637 C   0  0  0  0  0  0  0  0  0  0  0  0
   -8.0295   -2.9910    0.3567 C   0  0  0  0  0  0  0  0  0  0  0  0
   -6.1196   -4.6110    0.6513 C   0  0  0  0  0  0  0  0  0  0  0  0
   -5.1427   -1.8472   -1.4118 C   0  0  0  0  0  0  0  0  0  0  0  0
   -4.2358   -0.7704   -1.4917 C   0  0  0  0  0  0  0  0  0  0  0  0
   -3.7285   -0.3501   -2.8741 C   0  0  0  0  0  0  0  0  0  0  0  0
   -2.9098   -1.4640   -3.5348 C   0  0  0  0  0  0  0  0  0  0  0  0
   -4.8768    0.0985   -3.7854 C   0  0  0  0  0  0  0  0  0  0  0  0
   -3.4377    2.3420   -0.3409 C   0  0  0  0  0  0  0  0  0  0  0  0
   -2.6140    3.4672   -0.4048 C   0  0  0  0  0  0  0  0  0  0  0  0
   -1.2127    3.3135   -0.5711 C   0  0  0  0  0  0  0  0  0  0  0  0
   -0.4450    4.5059   -0.5392 C   0  0  0  0  0  0  0  0  0  0  0  0
   -1.0248    5.7717   -0.4171 C   0  0  0  0  0  0  0  0  0  0  0  0
   -2.4004    5.8916   -0.3055 C   0  0  0  0  0  0  0  0  0  0  0  0
   -3.1888    4.7448   -0.2938 C   0  0  0  0  0  0  0  0  0  0  0  0
    1.2066   -2.5727    0.6870 H   0  0  0  0  0  0  0  0  0  0  0  0
    3.2043    2.2753    1.4386 H   0  0  0  0  0  0  0  0  0  0  0  0
    2.1489    0.9978    3.3106 H   0  0  0  0  0  0  0  0  0  0  0  0
    2.6772    2.6245    3.7659 H   0  0  0  0  0  0  0  0  0  0  0  0
    3.6173    1.2178    4.2724 H   0  0  0  0  0  0  0  0  0  0  0  0
    5.6459    2.7230    1.4273 H   0  0  0  0  0  0  0  0  0  0  0  0
    5.7424    2.2433    3.1286 H   0  0  0  0  0  0  0  0  0  0  0  0
    4.7711    3.6433    2.6611 H   0  0  0  0  0  0  0  0  0  0  0  0
    5.3624   -0.1039    3.3867 H   0  0  0  0  0  0  0  0  0  0  0  0
    6.5875   -3.5163    2.2843 H   0  0  0  0  0  0  0  0  0  0  0  0
    7.6341   -0.9996    3.6824 H   0  0  0  0  0  0  0  0  0  0  0  0
    8.2315   -1.6492    2.1485 H   0  0  0  0  0  0  0  0  0  0  0  0
    8.4016   -2.5923    3.6374 H   0  0  0  0  0  0  0  0  0  0  0  0
    5.5190   -2.1021    4.7817 H   0  0  0  0  0  0  0  0  0  0  0  0
    4.7406   -3.4592    3.9545 H   0  0  0  0  0  0  0  0  0  0  0  0
    6.3292   -3.6720    4.7070 H   0  0  0  0  0  0  0  0  0  0  0  0
    5.4597   -3.1063    0.3493 H   0  0  0  0  0  0  0  0  0  0  0  0
    3.0101   -1.3895   -1.8936 H   0  0  0  0  0  0  0  0  0  0  0  0
    3.0478   -3.6909   -2.4594 H   0  0  0  0  0  0  0  0  0  0  0  0
    2.7444   -3.6188   -0.7176 H   0  0  0  0  0  0  0  0  0  0  0  0
    4.3417   -4.0678   -1.3254 H   0  0  0  0  0  0  0  0  0  0  0  0
    5.9281   -2.2928   -2.1994 H   0  0  0  0  0  0  0  0  0  0  0  0
    4.7518   -2.0544   -3.5005 H   0  0  0  0  0  0  0  0  0  0  0  0
    5.3359   -0.6724   -2.5664 H   0  0  0  0  0  0  0  0  0  0  0  0
    4.6157    1.4000   -1.7385 H   0  0  0  0  0  0  0  0  0  0  0  0
   -0.4285    3.1915   -3.1717 H   0  0  0  0  0  0  0  0  0  0  0  0
    0.6894    4.2615   -5.0461 H   0  0  0  0  0  0  0  0  0  0  0  0
    3.1507    4.0815   -5.3128 H   0  0  0  0  0  0  0  0  0  0  0  0
    4.4667    2.7884   -3.6921 H   0  0  0  0  0  0  0  0  0  0  0  0
   -3.0406    0.6711    2.1516 H   0  0  0  0  0  0  0  0  0  0  0  0
   -6.0090    0.5815    2.9260 H   0  0  0  0  0  0  0  0  0  0  0  0
   -4.7607    1.6120    3.6429 H   0  0  0  0  0  0  0  0  0  0  0  0
   -5.2551    1.8537    1.9631 H   0  0  0  0  0  0  0  0  0  0  0  0
   -4.6132   -1.3644    3.7796 H   0  0  0  0  0  0  0  0  0  0  0  0
   -3.2301   -0.3860    4.2615 H   0  0  0  0  0  0  0  0  0  0  0  0
   -3.0221   -1.6906    3.0819 H   0  0  0  0  0  0  0  0  0  0  0  0
   -5.7042   -1.9380    1.9197 H   0  0  0  0  0  0  0  0  0  0  0  0
   -6.8070   -3.7944   -1.1901 H   0  0  0  0  0  0  0  0  0  0  0  0
   -8.7491   -3.8144    0.2927 H   0  0  0  0  0  0  0  0  0  0  0  0
   -8.4220   -2.1561   -0.2345 H   0  0  0  0  0  0  0  0  0  0  0  0
   -7.9866   -2.6681    1.4025 H   0  0  0  0  0  0  0  0  0  0  0  0
   -6.8025   -5.4654    0.5909 H   0  0  0  0  0  0  0  0  0  0  0  0
   -5.9989   -4.3570    1.7100 H   0  0  0  0  0  0  0  0  0  0  0  0
   -5.1437   -4.9345    0.2723 H   0  0  0  0  0  0  0  0  0  0  0  0
   -5.4457   -2.3574   -2.3244 H   0  0  0  0  0  0  0  0  0  0  0  0
   -3.0624    0.5131   -2.7915 H   0  0  0  0  0  0  0  0  0  0  0  0
   -2.0833   -1.7795   -2.8888 H   0  0  0  0  0  0  0  0  0  0  0  0
   -3.5178   -2.3480   -3.7547 H   0  0  0  0  0  0  0  0  0  0  0  0
   -2.4809   -1.1150   -4.4804 H   0  0  0  0  0  0  0  0  0  0  0  0
   -5.4597    0.8974   -3.3137 H   0  0  0  0  0  0  0  0  0  0  0  0
   -5.5624   -0.7216   -4.0232 H   0  0  0  0  0  0  0  0  0  0  0  0
   -4.4849    0.4847   -4.7328 H   0  0  0  0  0  0  0  0  0  0  0  0
   -4.5163    2.4638   -0.2476 H   0  0  0  0  0  0  0  0  0  0  0  0
    0.6414    4.4636   -0.5976 H   0  0  0  0  0  0  0  0  0  0  0  0
   -0.3942    6.6567   -0.4051 H   0  0  0  0  0  0  0  0  0  0  0  0
   -2.8597    6.8716   -0.2103 H   0  0  0  0  0  0  0  0  0  0  0  0
   -4.2658    4.8567   -0.1809 H   0  0  0  0  0  0  0  0  0  0  0  0
  2  4  1  0  0  0  0
  2  1  2  0  0  0  0
  3  2  1  0  0  0  0
  3 56  1  0  0  0  0
  5  4  1  0  0  0  0
  6  5  1  0  0  0  0
  6  7  1  0  0  0  0
  7  8  1  0  0  0  0
  8  9  1  0  0  0  0
  8 12  2  0  0  0  0
  9 11  1  0  0  0  0
  9 10  1  0  0  0  0
 10 59  1  0  0  0  0
 10 60  1  0  0  0  0
 11 63  1  0  0  0  0
 11 62  1  0  0  0  0
 12 64  1  0  0  0  0
 13 12  1  0  0  0  0
 13 14  1  0  0  0  0
 14 15  1  0  0  0  0
 14 16  1  0  0  0  0
 15 68  1  0  0  0  0
 15 66  1  0  0  0  0
 16 71  1  0  0  0  0
 16 69  1  0  0  0  0
 17 13  2  0  0  0  0
 18  7  2  0  0  0  0
 18 17  1  0  0  0  0
 19 20  1  0  0  0  0
 19 18  1  0  0  0  0
 20 76  1  0  0  0  0
 20 75  1  0  0  0  0
 21 77  1  0  0  0  0
 21 19  1  0  0  0  0
 22  6  2  0  0  0  0
 23 24  1  0  0  0  0
 23 22  1  0  0  0  0
 24 29  1  0  0  0  0
 25 81  1  0  0  0  0
 25 24  2  0  0  0  0
 26 25  1  0  0  0  0
 27 26  2  0  0  0  0
 27 28  1  0  0  0  0
 28 23  2  0  0  0  0
 29 30  1  0  0  0  0
 29  5  2  0  0  0  0
 30 51  2  0  0  0  0
 30 31  1  0  0  0  0
 31 33  2  0  0  0  0
 32 31  1  0  0  0  0
 32  2  1  0  0  0  0
 33 49  1  0  0  0  0
 33 34  1  0  0  0  0
 34 35  2  0  0  0  0
 35 39  1  0  0  0  0
 35 36  1  0  0  0  0
 36 37  1  0  0  0  0
 36 38  1  0  0  0  0
 37 86  1  0  0  0  0
 37 87  1  0  0  0  0
 38 89  1  0  0  0  0
 38 90  1  0  0  0  0
 39 92  1  0  0  0  0
 40 41  1  0  0  0  0
 40 39  2  0  0  0  0
 41 42  1  0  0  0  0
 41 43  1  0  0  0  0
 42 96  1  0  0  0  0
 43 98  1  0  0  0  0
 44 40  1  0  0  0  0
 45 44  2  0  0  0  0
 45 34  1  0  0  0  0
 46101  1  0  0  0  0
 46 45  1  0  0  0  0
 47102  1  0  0  0  0
 47 46  1  0  0  0  0
 48105  1  0  0  0  0
 48 46  1  0  0  0  0
 49108  1  0  0  0  0
 50 49  2  0  0  0  0
 50 55  1  0  0  0  0
 51 52  1  0  0  0  0
 51 50  1  0  0  0  0
 52 53  2  0  0  0  0
 53110  1  0  0  0  0
 53 54  1  0  0  0  0
 54 55  2  0  0  0  0
 54111  1  0  0  0  0
 55112  1  0  0  0  0
 57  9  1  0  0  0  0
 58 10  1  0  0  0  0
 61 11  1  0  0  0  0
 65 14  1  0  0  0  0
 67 15  1  0  0  0  0
 70 16  1  0  0  0  0
 72 17  1  0  0  0  0
 73 19  1  0  0  0  0
 74 20  1  0  0  0  0
 78 21  1  0  0  0  0
 79 21  1  0  0  0  0
 80 22  1  0  0  0  0
 82 26  1  0  0  0  0
 83 27  1  0  0  0  0
 84 28  1  0  0  0  0
 85 36  1  0  0  0  0
 88 37  1  0  0  0  0
 91 38  1  0  0  0  0
 93 41  1  0  0  0  0
 94 42  1  0  0  0  0
 95 42  1  0  0  0  0
 97 43  1  0  0  0  0
 99 43  1  0  0  0  0
100 44  1  0  0  0  0
103 47  1  0  0  0  0
104 47  1  0  0  0  0
106 48  1  0  0  0  0
107 48  1  0  0  0  0
109 52  1  0  0  0  0
M  END
$$$$
