O=P1(O)OC2=C(C3=CC=C(OC)C=C3)C=C4C(C=CC=C4)=C2C5=C(O1)C(C6=CC=C(OC)C=C6)=CC7=C5C=CC=C7
 OpenBabel09032010383D

 66 72  0  0  0  0  0  0  0  0999 V2000
    0.3407    2.7731    0.2929 O   0  0  0  0  0  0  0  0  0  0  0  0
   -0.0937    1.5064   -0.3763 P   0  0  0  0  0  0  0  0  0  0  0  0
   -0.8670    1.8020   -1.7556 O   0  0  0  0  0  0  0  0  0  0  0  0
    1.0716    0.4812   -0.8071 O   0  0  0  0  0  0  0  0  0  0  0  0
    1.5876   -0.3375    0.1741 C   0  0  0  0  0  0  0  0  0  0  0  0
    2.9166   -0.1032    0.5653 C   0  0  0  0  0  0  0  0  0  0  0  0
    3.7372    0.9592   -0.0288 C   0  0  0  0  0  0  0  0  0  0  0  0
    4.6425    0.6706   -1.0582 C   0  0  0  0  0  0  0  0  0  0  0  0
    5.4299    1.6809   -1.6176 C   0  0  0  0  0  0  0  0  0  0  0  0
    5.3292    2.9972   -1.1635 C   0  0  0  0  0  0  0  0  0  0  0  0
    6.1525    3.8867   -1.7971 O   0  0  0  0  0  0  0  0  0  0  0  0
    6.0543    5.2477   -1.3964 C   0  0  0  0  0  0  0  0  0  0  0  0
    4.4327    3.2946   -0.1383 C   0  0  0  0  0  0  0  0  0  0  0  0
    3.6459    2.2820    0.4251 C   0  0  0  0  0  0  0  0  0  0  0  0
    3.4670   -0.9304    1.5451 C   0  0  0  0  0  0  0  0  0  0  0  0
    2.7175   -1.9440    2.1483 C   0  0  0  0  0  0  0  0  0  0  0  0
    1.3771   -2.1802    1.7407 C   0  0  0  0  0  0  0  0  0  0  0  0
    0.6656   -3.1668    2.4706 C   0  0  0  0  0  0  0  0  0  0  0  0
    1.2548   -3.9185    3.4907 C   0  0  0  0  0  0  0  0  0  0  0  0
    2.5788   -3.6976    3.8332 C   0  0  0  0  0  0  0  0  0  0  0  0
    3.3025   -2.7112    3.1699 C   0  0  0  0  0  0  0  0  0  0  0  0
    0.7944   -1.4017    0.6750 C   0  0  0  0  0  0  0  0  0  0  0  0
   -0.5114   -1.6660    0.1019 C   0  0  0  0  0  0  0  0  0  0  0  0
   -1.4757   -0.6308    0.0192 C   0  0  0  0  0  0  0  0  0  0  0  0
   -1.1512    0.6314    0.4658 O   0  0  0  0  0  0  0  0  0  0  0  0
   -2.7931   -0.8140   -0.4400 C   0  0  0  0  0  0  0  0  0  0  0  0
   -3.7644    0.2908   -0.5021 C   0  0  0  0  0  0  0  0  0  0  0  0
   -4.2641    0.7362   -1.7341 C   0  0  0  0  0  0  0  0  0  0  0  0
   -5.1716    1.7976   -1.7959 C   0  0  0  0  0  0  0  0  0  0  0  0
   -5.6013    2.4365   -0.6318 C   0  0  0  0  0  0  0  0  0  0  0  0
   -6.4832    3.4613   -0.8340 O   0  0  0  0  0  0  0  0  0  0  0  0
   -6.9572    4.1397    0.3227 C   0  0  0  0  0  0  0  0  0  0  0  0
   -5.1153    2.0013    0.5996 C   0  0  0  0  0  0  0  0  0  0  0  0
   -4.2062    0.9375    0.6618 C   0  0  0  0  0  0  0  0  0  0  0  0
   -3.1622   -2.0918   -0.8621 C   0  0  0  0  0  0  0  0  0  0  0  0
   -2.2500   -3.1510   -0.8680 C   0  0  0  0  0  0  0  0  0  0  0  0
   -0.9178   -2.9509   -0.4148 C   0  0  0  0  0  0  0  0  0  0  0  0
   -0.0376   -4.0543   -0.5596 C   0  0  0  0  0  0  0  0  0  0  0  0
   -0.4576   -5.2941   -1.0489 C   0  0  0  0  0  0  0  0  0  0  0  0
   -1.7762   -5.4729   -1.4331 C   0  0  0  0  0  0  0  0  0  0  0  0
   -2.6640   -4.4046   -1.3501 C   0  0  0  0  0  0  0  0  0  0  0  0
   -1.4636    2.5655   -1.6521 H   0  0  0  0  0  0  0  0  0  0  0  0
    4.7356   -0.3449   -1.4369 H   0  0  0  0  0  0  0  0  0  0  0  0
    6.1239    1.4385   -2.4182 H   0  0  0  0  0  0  0  0  0  0  0  0
    6.7573    5.8262   -2.0035 H   0  0  0  0  0  0  0  0  0  0  0  0
    5.0502    5.6433   -1.5822 H   0  0  0  0  0  0  0  0  0  0  0  0
    6.3411    5.3714   -0.3469 H   0  0  0  0  0  0  0  0  0  0  0  0
    4.3133    4.3010    0.2478 H   0  0  0  0  0  0  0  0  0  0  0  0
    2.9492    2.5396    1.2214 H   0  0  0  0  0  0  0  0  0  0  0  0
    4.4965   -0.7571    1.8582 H   0  0  0  0  0  0  0  0  0  0  0  0
   -0.3848   -3.3599    2.2589 H   0  0  0  0  0  0  0  0  0  0  0  0
    0.6712   -4.6700    4.0158 H   0  0  0  0  0  0  0  0  0  0  0  0
    3.0445   -4.2776    4.6253 H   0  0  0  0  0  0  0  0  0  0  0  0
    4.3342   -2.5354    3.4697 H   0  0  0  0  0  0  0  0  0  0  0  0
   -3.9377    0.2659   -2.6599 H   0  0  0  0  0  0  0  0  0  0  0  0
   -5.5454    2.1292   -2.7618 H   0  0  0  0  0  0  0  0  0  0  0  0
   -7.5097    3.4603    0.9802 H   0  0  0  0  0  0  0  0  0  0  0  0
   -6.1361    4.6281    0.8577 H   0  0  0  0  0  0  0  0  0  0  0  0
   -7.6499    4.9198   -0.0077 H   0  0  0  0  0  0  0  0  0  0  0  0
   -5.4174    2.4644    1.5329 H   0  0  0  0  0  0  0  0  0  0  0  0
   -3.8379    0.6156    1.6347 H   0  0  0  0  0  0  0  0  0  0  0  0
   -4.1810   -2.2551   -1.2132 H   0  0  0  0  0  0  0  0  0  0  0  0
    1.0155   -3.9589   -0.3006 H   0  0  0  0  0  0  0  0  0  0  0  0
    0.2533   -6.1119   -1.1325 H   0  0  0  0  0  0  0  0  0  0  0  0
   -2.1106   -6.4337   -1.8148 H   0  0  0  0  0  0  0  0  0  0  0  0
   -3.6892   -4.5568   -1.6831 H   0  0  0  0  0  0  0  0  0  0  0  0
  2  1  2  0  0  0  0
  2 25  1  0  0  0  0
  3 42  1  0  0  0  0
  3  2  1  0  0  0  0
  4  2  1  0  0  0  0
  4  5  1  0  0  0  0
  5  6  2  0  0  0  0
  5 22  1  0  0  0  0
  6 15  1  0  0  0  0
  7 14  1  0  0  0  0
  7  6  1  0  0  0  0
  8  7  2  0  0  0  0
  9 10  2  0  0  0  0
  9  8  1  0  0  0  0
 10 13  1  0  0  0  0
 11 12  1  0  0  0  0
 11 10  1  0  0  0  0
 12 47  1  0  0  0  0
 13 48  1  0  0  0  0
 13 14  2  0  0  0  0
 14 49  1  0  0  0  0
 15 50  1  0  0  0  0
 15 16  2  0  0  0  0
 16 21  1  0  0  0  0
 17 16  1  0  0  0  0
 17 18  1  0  0  0  0
 18 19  2  0  0  0  0
 19 20  1  0  0  0  0
 19 52  1  0  0  0  0
 20 53  1  0  0  0  0
 21 54  1  0  0  0  0
 21 20  2  0  0  0  0
 22 17  2  0  0  0  0
 23 22  1  0  0  0  0
 24 23  1  0  0  0  0
 24 25  1  0  0  0  0
 26 24  2  0  0  0  0
 27 26  1  0  0  0  0
 27 34  2  0  0  0  0
 28 27  1  0  0  0  0
 29 28  2  0  0  0  0
 29 30  1  0  0  0  0
 30 33  2  0  0  0  0
 31 30  1  0  0  0  0
 31 32  1  0  0  0  0
 32 58  1  0  0  0  0
 32 57  1  0  0  0  0
 33 34  1  0  0  0  0
 33 60  1  0  0  0  0
 34 61  1  0  0  0  0
 35 26  1  0  0  0  0
 36 35  2  0  0  0  0
 36 37  1  0  0  0  0
 37 23  2  0  0  0  0
 38 37  1  0  0  0  0
 38 63  1  0  0  0  0
 39 38  2  0  0  0  0
 40 41  2  0  0  0  0
 40 39  1  0  0  0  0
 41 36  1  0  0  0  0
 43  8  1  0  0  0  0
 44  9  1  0  0  0  0
 45 12  1  0  0  0  0
 46 12  1  0  0  0  0
 51 18  1  0  0  0  0
 55 28  1  0  0  0  0
 56 29  1  0  0  0  0
 59 32  1  0  0  0  0
 62 35  1  0  0  0  0
 64 39  1  0  0  0  0
 65 40  1  0  0  0  0
 66 41  1  0  0  0  0
M  END
$$$$
