O=P1(O)OC2=C(C3=CC(COC)=CC=C3)C=C4C(C=CC=C4)=C2C5=C(O1)C(C6=CC=CC(COC)=C6)=CC7=C5C=CC=C7
 OpenBabel09032010383D

 72 78  0  0  0  0  0  0  0  0999 V2000
    0.4660    1.9148    1.9914 O   0  0  0  0  0  0  0  0  0  0  0  0
   -0.0823    1.0916    0.8678 P   0  0  0  0  0  0  0  0  0  0  0  0
   -0.8417    1.9972   -0.2204 O   0  0  0  0  0  0  0  0  0  0  0  0
    0.9928    0.3091   -0.0354 O   0  0  0  0  0  0  0  0  0  0  0  0
    1.5767   -0.8147    0.5005 C   0  0  0  0  0  0  0  0  0  0  0  0
    2.9325   -0.7144    0.8759 C   0  0  0  0  0  0  0  0  0  0  0  0
    3.6930    0.5516    0.7760 C   0  0  0  0  0  0  0  0  0  0  0  0
    3.6744    1.3284   -0.3951 C   0  0  0  0  0  0  0  0  0  0  0  0
    4.2768    2.5957   -0.4539 C   0  0  0  0  0  0  0  0  0  0  0  0
    4.1413    3.4508   -1.6907 C   0  0  0  0  0  0  0  0  0  0  0  0
    2.8352    3.3833   -2.2723 O   0  0  0  0  0  0  0  0  0  0  0  0
    1.8482    4.0822   -1.5191 C   0  0  0  0  0  0  0  0  0  0  0  0
    4.9996    3.0524    0.6524 C   0  0  0  0  0  0  0  0  0  0  0  0
    5.0727    2.2794    1.8095 C   0  0  0  0  0  0  0  0  0  0  0  0
    4.4138    1.0494    1.8742 C   0  0  0  0  0  0  0  0  0  0  0  0
    3.5376   -1.8651    1.3849 C   0  0  0  0  0  0  0  0  0  0  0  0
    2.8201   -3.0513    1.5716 C   0  0  0  0  0  0  0  0  0  0  0  0
    1.4489   -3.1259    1.2049 C   0  0  0  0  0  0  0  0  0  0  0  0
    0.7774   -4.3305    1.5367 C   0  0  0  0  0  0  0  0  0  0  0  0
    1.4294   -5.4188    2.1220 C   0  0  0  0  0  0  0  0  0  0  0  0
    2.7800   -5.3352    2.4166 C   0  0  0  0  0  0  0  0  0  0  0  0
    3.4683   -4.1558    2.1494 C   0  0  0  0  0  0  0  0  0  0  0  0
    0.8006   -1.9981    0.5831 C   0  0  0  0  0  0  0  0  0  0  0  0
   -0.5537   -2.0251    0.0484 C   0  0  0  0  0  0  0  0  0  0  0  0
   -1.5066   -1.0439    0.4279 C   0  0  0  0  0  0  0  0  0  0  0  0
   -1.1567   -0.0287    1.2965 O   0  0  0  0  0  0  0  0  0  0  0  0
   -2.8689   -1.0916    0.0598 C   0  0  0  0  0  0  0  0  0  0  0  0
   -3.8074   -0.0532    0.5006 C   0  0  0  0  0  0  0  0  0  0  0  0
   -4.6677   -0.2462    1.5868 C   0  0  0  0  0  0  0  0  0  0  0  0
   -5.4282    0.8161    2.0819 C   0  0  0  0  0  0  0  0  0  0  0  0
   -5.3058    2.0903    1.5222 C   0  0  0  0  0  0  0  0  0  0  0  0
   -4.4546    2.3019    0.4336 C   0  0  0  0  0  0  0  0  0  0  0  0
   -4.1973    3.6758   -0.1219 C   0  0  0  0  0  0  0  0  0  0  0  0
   -2.7895    3.9386    0.0073 O   0  0  0  0  0  0  0  0  0  0  0  0
   -2.4623    5.2251   -0.5087 C   0  0  0  0  0  0  0  0  0  0  0  0
   -3.7689    1.2076   -0.1072 C   0  0  0  0  0  0  0  0  0  0  0  0
   -3.3001   -2.1305   -0.7592 C   0  0  0  0  0  0  0  0  0  0  0  0
   -2.4014   -3.0815   -1.2458 C   0  0  0  0  0  0  0  0  0  0  0  0
   -1.0279   -3.0286   -0.8763 C   0  0  0  0  0  0  0  0  0  0  0  0
   -0.1783   -3.9710   -1.5106 C   0  0  0  0  0  0  0  0  0  0  0  0
   -0.6560   -4.9469   -2.3898 C   0  0  0  0  0  0  0  0  0  0  0  0
   -2.0073   -5.0042   -2.6874 C   0  0  0  0  0  0  0  0  0  0  0  0
   -2.8725   -4.0718   -2.1241 C   0  0  0  0  0  0  0  0  0  0  0  0
   -1.4390    2.6590    0.1959 H   0  0  0  0  0  0  0  0  0  0  0  0
    3.1304    0.9720   -1.2703 H   0  0  0  0  0  0  0  0  0  0  0  0
    4.8520    3.0845   -2.4397 H   0  0  0  0  0  0  0  0  0  0  0  0
    4.3924    4.4985   -1.4861 H   0  0  0  0  0  0  0  0  0  0  0  0
    2.1127    5.1404   -1.4337 H   0  0  0  0  0  0  0  0  0  0  0  0
    1.7234    3.6443   -0.5249 H   0  0  0  0  0  0  0  0  0  0  0  0
    0.8961    4.0040   -2.0509 H   0  0  0  0  0  0  0  0  0  0  0  0
    5.4922    4.0214    0.6296 H   0  0  0  0  0  0  0  0  0  0  0  0
    5.6170    2.6468    2.6756 H   0  0  0  0  0  0  0  0  0  0  0  0
    4.4372    0.4947    2.8097 H   0  0  0  0  0  0  0  0  0  0  0  0
    4.5894   -1.8258    1.6665 H   0  0  0  0  0  0  0  0  0  0  0  0
   -0.2904   -4.4371    1.3529 H   0  0  0  0  0  0  0  0  0  0  0  0
    0.8727   -6.3237    2.3500 H   0  0  0  0  0  0  0  0  0  0  0  0
    3.2948   -6.1761    2.8722 H   0  0  0  0  0  0  0  0  0  0  0  0
    4.5225   -4.1002    2.4148 H   0  0  0  0  0  0  0  0  0  0  0  0
   -4.7185   -1.2150    2.0790 H   0  0  0  0  0  0  0  0  0  0  0  0
   -6.0816    0.6594    2.9366 H   0  0  0  0  0  0  0  0  0  0  0  0
   -5.8591    2.9172    1.9608 H   0  0  0  0  0  0  0  0  0  0  0  0
   -4.7618    4.4344    0.4322 H   0  0  0  0  0  0  0  0  0  0  0  0
   -4.4923    3.7091   -1.1772 H   0  0  0  0  0  0  0  0  0  0  0  0
   -1.3865    5.3785   -0.3895 H   0  0  0  0  0  0  0  0  0  0  0  0
   -2.7086    5.2835   -1.5731 H   0  0  0  0  0  0  0  0  0  0  0  0
   -2.9912    6.0057    0.0464 H   0  0  0  0  0  0  0  0  0  0  0  0
   -3.1237    1.3589   -0.9720 H   0  0  0  0  0  0  0  0  0  0  0  0
   -4.3487   -2.1693   -1.0513 H   0  0  0  0  0  0  0  0  0  0  0  0
    0.8963   -3.9477   -1.3377 H   0  0  0  0  0  0  0  0  0  0  0  0
    0.0355   -5.6527   -2.8425 H   0  0  0  0  0  0  0  0  0  0  0  0
   -2.3866   -5.7584   -3.3712 H   0  0  0  0  0  0  0  0  0  0  0  0
   -3.9264   -4.1143   -2.3930 H   0  0  0  0  0  0  0  0  0  0  0  0
  2 26  1  0  0  0  0
  2  1  2  0  0  0  0
  3 44  1  0  0  0  0
  3  2  1  0  0  0  0
  4  5  1  0  0  0  0
  4  2  1  0  0  0  0
  5 23  2  0  0  0  0
  5  6  1  0  0  0  0
  6 16  2  0  0  0  0
  7  6  1  0  0  0  0
  7 15  2  0  0  0  0
  8  7  1  0  0  0  0
  9  8  2  0  0  0  0
  9 13  1  0  0  0  0
 10 47  1  0  0  0  0
 10  9  1  0  0  0  0
 11 10  1  0  0  0  0
 11 12  1  0  0  0  0
 12 48  1  0  0  0  0
 12 49  1  0  0  0  0
 13 14  2  0  0  0  0
 14 15  1  0  0  0  0
 14 52  1  0  0  0  0
 15 53  1  0  0  0  0
 16 17  1  0  0  0  0
 16 54  1  0  0  0  0
 17 22  2  0  0  0  0
 18 19  2  0  0  0  0
 18 17  1  0  0  0  0
 19 20  1  0  0  0  0
 20 56  1  0  0  0  0
 20 21  2  0  0  0  0
 21 57  1  0  0  0  0
 22 58  1  0  0  0  0
 22 21  1  0  0  0  0
 23 18  1  0  0  0  0
 24 25  2  0  0  0  0
 24 23  1  0  0  0  0
 25 26  1  0  0  0  0
 27 25  1  0  0  0  0
 27 28  1  0  0  0  0
 28 29  2  0  0  0  0
 29 59  1  0  0  0  0
 29 30  1  0  0  0  0
 30 60  1  0  0  0  0
 31 61  1  0  0  0  0
 31 30  2  0  0  0  0
 32 31  1  0  0  0  0
 33 34  1  0  0  0  0
 33 62  1  0  0  0  0
 33 32  1  0  0  0  0
 35 64  1  0  0  0  0
 35 34  1  0  0  0  0
 35 66  1  0  0  0  0
 36 32  2  0  0  0  0
 36 28  1  0  0  0  0
 37 27  2  0  0  0  0
 38 39  1  0  0  0  0
 38 37  1  0  0  0  0
 39 24  1  0  0  0  0
 40 69  1  0  0  0  0
 40 39  2  0  0  0  0
 41 40  1  0  0  0  0
 42 41  2  0  0  0  0
 42 43  1  0  0  0  0
 43 38  2  0  0  0  0
 45  8  1  0  0  0  0
 46 10  1  0  0  0  0
 50 12  1  0  0  0  0
 51 13  1  0  0  0  0
 55 19  1  0  0  0  0
 63 33  1  0  0  0  0
 65 35  1  0  0  0  0
 67 36  1  0  0  0  0
 68 37  1  0  0  0  0
 70 41  1  0  0  0  0
 71 42  1  0  0  0  0
 72 43  1  0  0  0  0
M  END
$$$$
