O=P1(O)OC2=C(C3=CC=C(S(F)(F)(F)(F)F)C=C3)C=C4C(C=CC=C4)=C2C5=C(O1)C(C6=CC=C(S(F)(F)(F)(F)F)C=C6)=CC7=C5C=CC=C7
 OpenBabel09032010373D

 68 66  0  0  0  0  0  0  0  0999 V2000
    0.3097   -1.5097   -2.7041 O   0  0  0  0  0  0  0  0  0  0  0  0
   -0.0511   -1.5233   -1.2457 P   0  0  0  0  0  0  0  0  0  0  0  0
   -0.5675   -3.0587   -0.8650 O   0  0  0  0  0  0  0  0  0  0  0  0
   -1.3334   -0.3257   -1.0678 O   0  0  0  0  0  0  0  0  0  0  0  0
   -1.5806    0.3558    0.1226 C   0  0  0  0  0  0  0  0  0  0  0  0
   -2.8287    0.4731    0.6138 C   0  0  0  0  0  0  0  0  0  0  0  0
   -3.9645   -0.0767   -0.1483 C   0  0  0  0  0  0  0  0  0  0  0  0
   -3.9350   -1.3757   -0.5664 C   0  0  0  0  0  0  0  0  0  0  0  0
   -5.0023   -1.9188   -1.3087 C   0  0  0  0  0  0  0  0  0  0  0  0
   -6.0805   -1.1961   -1.6349 C   0  0  0  0  0  0  0  0  0  0  0  0
   -7.5128   -1.9399   -2.8143 S   0  0  0  0  0  0  0  0  0  0  0  0
   -9.6002   -1.1922   -2.8469 F   0  0  0  0  0  0  0  0  0  0  0  0
   -7.2362   -3.6837   -3.9913 F   0  0  0  0  0  0  0  0  0  0  0  0
   -8.9194   -2.3551   -0.8501 F   0  0  0  0  0  0  0  0  0  0  0  0
   -8.0231   -4.2948   -1.8949 F   0  0  0  0  0  0  0  0  0  0  0  0
   -7.6898   -1.3731   -4.2988 F   0  0  0  0  0  0  0  0  0  0  0  0
   -6.0736    0.1058   -1.1936 C   0  0  0  0  0  0  0  0  0  0  0  0
   -5.0529    0.7111   -0.4555 C   0  0  0  0  0  0  0  0  0  0  0  0
   -3.0719    1.1241    1.8315 C   0  0  0  0  0  0  0  0  0  0  0  0
   -2.0241    1.6552    2.5600 C   0  0  0  0  0  0  0  0  0  0  0  0
   -0.6836    1.5676    2.0949 C   0  0  0  0  0  0  0  0  0  0  0  0
    0.3888    1.9072    2.8828 C   0  0  0  0  0  0  0  0  0  0  0  0
    0.1555    2.3773    4.1593 C   0  0  0  0  0  0  0  0  0  0  0  0
   -1.1423    2.4947    4.6291 C   0  0  0  0  0  0  0  0  0  0  0  0
   -2.2117    2.1365    3.8397 C   0  0  0  0  0  0  0  0  0  0  0  0
   -0.5536    0.9406    0.9068 C   0  0  0  0  0  0  0  0  0  0  0  0
    0.8193    1.2046    0.3809 C   0  0  0  0  0  0  0  0  0  0  0  0
    1.7087    0.1654    0.0012 C   0  0  0  0  0  0  0  0  0  0  0  0
    1.3271   -1.1385   -0.2267 O   0  0  0  0  0  0  0  0  0  0  0  0
    3.0028    0.5607   -0.1538 C   0  0  0  0  0  0  0  0  0  0  0  0
    3.9724   -0.4873   -0.5337 C   0  0  0  0  0  0  0  0  0  0  0  0
    3.9979   -1.7024    0.0988 C   0  0  0  0  0  0  0  0  0  0  0  0
    4.9256   -2.6782   -0.2823 C   0  0  0  0  0  0  0  0  0  0  0  0
    5.8162   -2.4799   -1.2611 C   0  0  0  0  0  0  0  0  0  0  0  0
    7.2155   -3.8435   -1.7093 S   0  0  0  0  0  0  0  0  0  0  0  0
    7.7511   -5.3876   -0.2991 F   0  0  0  0  0  0  0  0  0  0  0  0
    6.0761   -6.1034   -1.7356 F   0  0  0  0  0  0  0  0  0  0  0  0
    6.0022   -4.6125   -3.5852 F   0  0  0  0  0  0  0  0  0  0  0  0
    8.3216   -3.9606   -3.5775 F   0  0  0  0  0  0  0  0  0  0  0  0
    8.7769   -3.4737   -1.2654 F   0  0  0  0  0  0  0  0  0  0  0  0
    5.7571   -1.2501   -1.8712 C   0  0  0  0  0  0  0  0  0  0  0  0
    4.8611   -0.2236   -1.5483 C   0  0  0  0  0  0  0  0  0  0  0  0
    3.4105    1.8733    0.0339 C   0  0  0  0  0  0  0  0  0  0  0  0
    2.4830    2.8351    0.3834 C   0  0  0  0  0  0  0  0  0  0  0  0
    1.1090    2.5130    0.5689 C   0  0  0  0  0  0  0  0  0  0  0  0
    0.1434    3.4739    0.7202 C   0  0  0  0  0  0  0  0  0  0  0  0
    0.5108    4.8112    0.7240 C   0  0  0  0  0  0  0  0  0  0  0  0
    1.8504    5.1434    0.5679 C   0  0  0  0  0  0  0  0  0  0  0  0
    2.8054    4.1729    0.4004 C   0  0  0  0  0  0  0  0  0  0  0  0
   -0.9619   -3.1656    0.0153 H   0  0  0  0  0  0  0  0  0  0  0  0
   -3.1440   -2.0622   -0.3653 H   0  0  0  0  0  0  0  0  0  0  0  0
   -4.9468   -2.9399   -1.6205 H   0  0  0  0  0  0  0  0  0  0  0  0
   -6.9940    0.6394   -1.4899 H   0  0  0  0  0  0  0  0  0  0  0  0
   -5.1339    1.7140   -0.1634 H   0  0  0  0  0  0  0  0  0  0  0  0
   -4.0834    1.1899    2.1644 H   0  0  0  0  0  0  0  0  0  0  0  0
    1.4340    1.7530    2.7122 H   0  0  0  0  0  0  0  0  0  0  0  0
    0.9570    2.6608    4.8036 H   0  0  0  0  0  0  0  0  0  0  0  0
   -1.3164    2.8842    5.6330 H   0  0  0  0  0  0  0  0  0  0  0  0
   -3.2393    2.2267    4.2133 H   0  0  0  0  0  0  0  0  0  0  0  0
    3.3395   -1.9742    0.8927 H   0  0  0  0  0  0  0  0  0  0  0  0
    4.9187   -3.6165    0.2316 H   0  0  0  0  0  0  0  0  0  0  0  0
    6.5109   -1.1542   -2.6710 H   0  0  0  0  0  0  0  0  0  0  0  0
    4.9356    0.6705   -2.1046 H   0  0  0  0  0  0  0  0  0  0  0  0
    4.4415    2.1206   -0.0958 H   0  0  0  0  0  0  0  0  0  0  0  0
   -0.9230    3.3803    0.7166 H   0  0  0  0  0  0  0  0  0  0  0  0
   -0.1861    5.6097    0.8461 H   0  0  0  0  0  0  0  0  0  0  0  0
    2.1676    6.1734    0.5842 H   0  0  0  0  0  0  0  0  0  0  0  0
    3.8650    4.4524    0.2745 H   0  0  0  0  0  0  0  0  0  0  0  0
  1  2  2  0  0  0  0
  2  4  1  0  0  0  0
  2  3  1  0  0  0  0
  2 29  1  0  0  0  0
  3 50  1  0  0  0  0
  4  5  1  0  0  0  0
  5  6  2  0  0  0  0
  5 26  1  0  0  0  0
  6 19  1  0  0  0  0
  7  6  1  0  0  0  0
  8 51  1  0  0  0  0
  8  7  2  0  0  0  0
  9  8  1  0  0  0  0
 10  9  2  0  0  0  0
 10 17  1  0  0  0  0
 11 10  1  0  0  0  0
 16 11  1  0  0  0  0
 17 18  2  0  0  0  0
 18 54  1  0  0  0  0
 18  7  1  0  0  0  0
 19 55  1  0  0  0  0
 19 20  2  0  0  0  0
 20 25  1  0  0  0  0
 21 20  1  0  0  0  0
 21 22  1  0  0  0  0
 22 23  2  0  0  0  0
 23 24  1  0  0  0  0
 23 57  1  0  0  0  0
 24 58  1  0  0  0  0
 25 59  1  0  0  0  0
 25 24  2  0  0  0  0
 26 21  2  0  0  0  0
 27 45  2  0  0  0  0
 27 26  1  0  0  0  0
 28 27  1  0  0  0  0
 29 28  1  0  0  0  0
 30 28  2  0  0  0  0
 30 43  1  0  0  0  0
 31 30  1  0  0  0  0
 31 32  2  0  0  0  0
 32 60  1  0  0  0  0
 33 32  1  0  0  0  0
 33 61  1  0  0  0  0
 34 33  2  0  0  0  0
 35 40  1  0  0  0  0
 35 34  1  0  0  0  0
 41 42  2  0  0  0  0
 41 34  1  0  0  0  0
 42 31  1  0  0  0  0
 43 44  2  0  0  0  0
 44 49  1  0  0  0  0
 44 45  1  0  0  0  0
 45 46  1  0  0  0  0
 46 47  2  0  0  0  0
 47 66  1  0  0  0  0
 48 67  1  0  0  0  0
 48 47  1  0  0  0  0
 49 48  2  0  0  0  0
 52  9  1  0  0  0  0
 53 17  1  0  0  0  0
 56 22  1  0  0  0  0
 62 41  1  0  0  0  0
 63 42  1  0  0  0  0
 64 43  1  0  0  0  0
 65 46  1  0  0  0  0
 68 49  1  0  0  0  0
M  RAD  8  12   2  13   2  14   2  15   2  36   2  37   2  38   2  39   2
M  END
$$$$
