O=P1(O)OC2=C(C3=C(C4CCCCC4)C=C(C5CCCCC5)C=C3C6CCCCC6)C=C7C(C=CC=C7)=C2C8=C(O1)[C@@]([C@@]9=C(C%10CCCCC%10)C=C(C%11CCCCC%11)C=C9C%12CCCCC%12)=CC%13=C8C=CC=C%13
 OpenBabel09032010373D

154166  0  0  0  0  0  0  0  0999 V2000
    0.3602   -1.7761   -0.9323 O   0  0  0  0  0  0  0  0  0  0  0  0
   -0.1108   -0.5672   -0.1889 P   0  0  0  0  0  0  0  0  0  0  0  0
   -1.0059   -0.9748    1.0815 O   0  0  0  0  0  0  0  0  0  0  0  0
    1.0179    0.3917    0.4402 O   0  0  0  0  0  0  0  0  0  0  0  0
    1.6582    1.2643   -0.4101 C   0  0  0  0  0  0  0  0  0  0  0  0
    3.0334    1.0537   -0.6237 C   0  0  0  0  0  0  0  0  0  0  0  0
    3.7858   -0.0342    0.0431 C   0  0  0  0  0  0  0  0  0  0  0  0
    4.2232    0.1345    1.3895 C   0  0  0  0  0  0  0  0  0  0  0  0
    3.9310    1.4030    2.1987 C   0  0  0  0  0  0  0  0  0  0  0  0
    3.0002    1.1293    3.4029 C   0  0  0  0  0  0  0  0  0  0  0  0
    3.7046    1.2690    4.7489 C   0  0  0  0  0  0  0  0  0  0  0  0
    4.3563    2.6406    4.9231 C   0  0  0  0  0  0  0  0  0  0  0  0
    4.9376    3.2189    3.6322 C   0  0  0  0  0  0  0  0  0  0  0  0
    5.2276    2.1395    2.5960 C   0  0  0  0  0  0  0  0  0  0  0  0
    4.9481   -0.8993    2.0119 C   0  0  0  0  0  0  0  0  0  0  0  0
    5.2729   -2.0793    1.3416 C   0  0  0  0  0  0  0  0  0  0  0  0
    6.0712   -3.1833    2.0123 C   0  0  0  0  0  0  0  0  0  0  0  0
    7.5399   -2.7661    2.2332 C   0  0  0  0  0  0  0  0  0  0  0  0
    8.2243   -3.5286    3.3718 C   0  0  0  0  0  0  0  0  0  0  0  0
    7.6507   -4.9276    3.5487 C   0  0  0  0  0  0  0  0  0  0  0  0
    6.1580   -4.8956    3.8823 C   0  0  0  0  0  0  0  0  0  0  0  0
    5.4297   -3.6711    3.3198 C   0  0  0  0  0  0  0  0  0  0  0  0
    4.8549   -2.2265    0.0151 C   0  0  0  0  0  0  0  0  0  0  0  0
    4.1030   -1.2422   -0.6519 C   0  0  0  0  0  0  0  0  0  0  0  0
    3.6639   -1.4772   -2.1067 C   0  0  0  0  0  0  0  0  0  0  0  0
    3.0705   -2.8737   -2.4149 C   0  0  0  0  0  0  0  0  0  0  0  0
    4.0446   -3.9460   -2.9051 C   0  0  0  0  0  0  0  0  0  0  0  0
    5.0298   -3.4238   -3.9391 C   0  0  0  0  0  0  0  0  0  0  0  0
    5.7497   -2.1804   -3.4398 C   0  0  0  0  0  0  0  0  0  0  0  0
    4.7593   -1.0690   -3.1101 C   0  0  0  0  0  0  0  0  0  0  0  0
    3.7120    1.9485   -1.4542 C   0  0  0  0  0  0  0  0  0  0  0  0
    3.0444    2.9862   -2.1067 C   0  0  0  0  0  0  0  0  0  0  0  0
    1.6595    3.1964   -1.8763 C   0  0  0  0  0  0  0  0  0  0  0  0
    1.0453    4.2161   -2.6477 C   0  0  0  0  0  0  0  0  0  0  0  0
    1.7610    5.0204   -3.5389 C   0  0  0  0  0  0  0  0  0  0  0  0
    3.1221    4.8228   -3.7047 C   0  0  0  0  0  0  0  0  0  0  0  0
    3.7578    3.8074   -2.9964 C   0  0  0  0  0  0  0  0  0  0  0  0
    0.9437    2.3701   -0.9353 C   0  0  0  0  0  0  0  0  0  0  0  0
   -0.4113    2.6457   -0.4937 C   0  0  0  0  0  0  0  0  0  0  0  0
   -1.4097    1.6422   -0.5503 C   0  0  0  0  0  0  0  0  0  0  0  0
   -1.0885    0.3930   -1.0271 O   0  0  0  0  0  0  0  0  0  0  0  0
   -2.7714    1.8735   -0.2712 C   0  0  0  0  0  0  0  0  0  0  0  0
   -3.7944    0.8052   -0.3642 C   0  0  0  0  0  0  0  0  0  0  0  0
   -4.3369    0.2174    0.8184 C   0  0  0  0  0  0  0  0  0  0  0  0
   -3.9469    0.6804    2.2288 C   0  0  0  0  0  0  0  0  0  0  0  0
   -3.5273   -0.4700    3.1789 C   0  0  0  0  0  0  0  0  0  0  0  0
   -3.9372   -0.2416    4.6360 C   0  0  0  0  0  0  0  0  0  0  0  0
   -3.7916    1.2211    5.0309 C   0  0  0  0  0  0  0  0  0  0  0  0
   -4.6737    2.1371    4.1828 C   0  0  0  0  0  0  0  0  0  0  0  0
   -5.0787    1.5256    2.8406 C   0  0  0  0  0  0  0  0  0  0  0  0
   -5.3255   -0.7823    0.7002 C   0  0  0  0  0  0  0  0  0  0  0  0
   -5.7765   -1.2366   -0.5409 C   0  0  0  0  0  0  0  0  0  0  0  0
   -6.8377   -2.3208   -0.6132 C   0  0  0  0  0  0  0  0  0  0  0  0
   -8.1382   -1.8047   -1.2534 C   0  0  0  0  0  0  0  0  0  0  0  0
   -9.2027   -2.8987   -1.3149 C   0  0  0  0  0  0  0  0  0  0  0  0
   -8.6886   -4.1454   -2.0288 C   0  0  0  0  0  0  0  0  0  0  0  0
   -7.3981   -4.6630   -1.4002 C   0  0  0  0  0  0  0  0  0  0  0  0
   -6.3255   -3.5768   -1.3401 C   0  0  0  0  0  0  0  0  0  0  0  0
   -5.2423   -0.6524   -1.6915 C   0  0  0  0  0  0  0  0  0  0  0  0
   -4.2700    0.3673   -1.6338 C   0  0  0  0  0  0  0  0  0  0  0  0
   -3.8001    0.9919   -2.9535 C   0  0  0  0  0  0  0  0  0  0  0  0
   -4.9453    1.7291   -3.6898 C   0  0  0  0  0  0  0  0  0  0  0  0
   -5.3817    1.0324   -4.9751 C   0  0  0  0  0  0  0  0  0  0  0  0
   -4.2192    0.8258   -5.9456 C   0  0  0  0  0  0  0  0  0  0  0  0
   -2.8875    0.5202   -5.2592 C   0  0  0  0  0  0  0  0  0  0  0  0
   -3.0779   -0.0340   -3.8523 C   0  0  0  0  0  0  0  0  0  0  0  0
   -3.1532    3.1652    0.0962 C   0  0  0  0  0  0  0  0  0  0  0  0
   -2.2104    4.1792    0.2707 C   0  0  0  0  0  0  0  0  0  0  0  0
   -0.8366    3.9291    0.0107 C   0  0  0  0  0  0  0  0  0  0  0  0
    0.0581    4.9852    0.3222 C   0  0  0  0  0  0  0  0  0  0  0  0
   -0.3762    6.2281    0.7905 C   0  0  0  0  0  0  0  0  0  0  0  0
   -1.7284    6.4571    0.9830 C   0  0  0  0  0  0  0  0  0  0  0  0
   -2.6388    5.4357    0.7301 C   0  0  0  0  0  0  0  0  0  0  0  0
   -1.6356   -1.6757    0.8332 H   0  0  0  0  0  0  0  0  0  0  0  0
    3.3825    2.1131    1.5718 H   0  0  0  0  0  0  0  0  0  0  0  0
    2.5244    0.1437    3.3313 H   0  0  0  0  0  0  0  0  0  0  0  0
    2.1778    1.8576    3.3764 H   0  0  0  0  0  0  0  0  0  0  0  0
    4.4702    0.4902    4.8444 H   0  0  0  0  0  0  0  0  0  0  0  0
    2.9917    1.0981    5.5639 H   0  0  0  0  0  0  0  0  0  0  0  0
    5.1463    2.5587    5.6796 H   0  0  0  0  0  0  0  0  0  0  0  0
    3.6235    3.3500    5.3268 H   0  0  0  0  0  0  0  0  0  0  0  0
    5.8507    3.7812    3.8590 H   0  0  0  0  0  0  0  0  0  0  0  0
    4.2278    3.9408    3.2085 H   0  0  0  0  0  0  0  0  0  0  0  0
    5.9805    1.4534    3.0022 H   0  0  0  0  0  0  0  0  0  0  0  0
    5.6780    2.5921    1.7037 H   0  0  0  0  0  0  0  0  0  0  0  0
    5.2747   -0.7741    3.0412 H   0  0  0  0  0  0  0  0  0  0  0  0
    6.0796   -4.0483    1.3328 H   0  0  0  0  0  0  0  0  0  0  0  0
    7.6331   -1.6925    2.4388 H   0  0  0  0  0  0  0  0  0  0  0  0
    8.0914   -2.9350    1.2988 H   0  0  0  0  0  0  0  0  0  0  0  0
    8.1002   -2.9693    4.3078 H   0  0  0  0  0  0  0  0  0  0  0  0
    9.3022   -3.5817    3.1812 H   0  0  0  0  0  0  0  0  0  0  0  0
    8.1915   -5.4634    4.3370 H   0  0  0  0  0  0  0  0  0  0  0  0
    7.8042   -5.4978    2.6237 H   0  0  0  0  0  0  0  0  0  0  0  0
    6.0202   -4.9161    4.9702 H   0  0  0  0  0  0  0  0  0  0  0  0
    5.6930   -5.8121    3.4992 H   0  0  0  0  0  0  0  0  0  0  0  0
    5.4532   -2.8731    4.0732 H   0  0  0  0  0  0  0  0  0  0  0  0
    4.3712   -3.9172    3.1688 H   0  0  0  0  0  0  0  0  0  0  0  0
    5.1297   -3.1375   -0.5028 H   0  0  0  0  0  0  0  0  0  0  0  0
    2.8198   -0.7991   -2.2823 H   0  0  0  0  0  0  0  0  0  0  0  0
    2.3291   -2.7379   -3.2153 H   0  0  0  0  0  0  0  0  0  0  0  0
    2.5136   -3.2595   -1.5531 H   0  0  0  0  0  0  0  0  0  0  0  0
    3.4730   -4.7761   -3.3382 H   0  0  0  0  0  0  0  0  0  0  0  0
    4.5953   -4.3786   -2.0651 H   0  0  0  0  0  0  0  0  0  0  0  0
    5.7611   -4.2045   -4.1771 H   0  0  0  0  0  0  0  0  0  0  0  0
    4.4971   -3.1927   -4.8698 H   0  0  0  0  0  0  0  0  0  0  0  0
    6.4434   -1.8286   -4.2123 H   0  0  0  0  0  0  0  0  0  0  0  0
    6.3562   -2.4235   -2.5602 H   0  0  0  0  0  0  0  0  0  0  0  0
    5.3142   -0.1923   -2.7593 H   0  0  0  0  0  0  0  0  0  0  0  0
    4.2690   -0.7668   -4.0455 H   0  0  0  0  0  0  0  0  0  0  0  0
    4.7819    1.8114   -1.6060 H   0  0  0  0  0  0  0  0  0  0  0  0
   -0.0262    4.3939   -2.5728 H   0  0  0  0  0  0  0  0  0  0  0  0
    1.2464    5.7942   -4.1022 H   0  0  0  0  0  0  0  0  0  0  0  0
    3.6864    5.4434   -4.3952 H   0  0  0  0  0  0  0  0  0  0  0  0
    4.8229    3.6504   -3.1578 H   0  0  0  0  0  0  0  0  0  0  0  0
   -3.0648    1.3273    2.1645 H   0  0  0  0  0  0  0  0  0  0  0  0
   -2.4348   -0.5589    3.1429 H   0  0  0  0  0  0  0  0  0  0  0  0
   -3.9040   -1.4479    2.8612 H   0  0  0  0  0  0  0  0  0  0  0  0
   -3.3235   -0.8707    5.2908 H   0  0  0  0  0  0  0  0  0  0  0  0
   -4.9774   -0.5592    4.7803 H   0  0  0  0  0  0  0  0  0  0  0  0
   -2.7424    1.5208    4.9138 H   0  0  0  0  0  0  0  0  0  0  0  0
   -4.0348    1.3540    6.0912 H   0  0  0  0  0  0  0  0  0  0  0  0
   -4.1425    3.0819    4.0144 H   0  0  0  0  0  0  0  0  0  0  0  0
   -5.5832    2.3943    4.7393 H   0  0  0  0  0  0  0  0  0  0  0  0
   -5.9718    0.9041    2.9893 H   0  0  0  0  0  0  0  0  0  0  0  0
   -5.3844    2.3295    2.1605 H   0  0  0  0  0  0  0  0  0  0  0  0
   -5.7660   -1.2049    1.6022 H   0  0  0  0  0  0  0  0  0  0  0  0
   -7.0836   -2.6248    0.4146 H   0  0  0  0  0  0  0  0  0  0  0  0
   -7.9498   -1.4379   -2.2704 H   0  0  0  0  0  0  0  0  0  0  0  0
   -8.5265   -0.9526   -0.6818 H   0  0  0  0  0  0  0  0  0  0  0  0
   -9.5137   -3.1628   -0.2966 H   0  0  0  0  0  0  0  0  0  0  0  0
  -10.0915   -2.5187   -1.8312 H   0  0  0  0  0  0  0  0  0  0  0  0
   -8.5114   -3.9130   -3.0862 H   0  0  0  0  0  0  0  0  0  0  0  0
   -9.4536   -4.9294   -1.9979 H   0  0  0  0  0  0  0  0  0  0  0  0
   -7.6057   -5.0276   -0.3867 H   0  0  0  0  0  0  0  0  0  0  0  0
   -7.0247   -5.5173   -1.9761 H   0  0  0  0  0  0  0  0  0  0  0  0
   -6.0137   -3.3325   -2.3634 H   0  0  0  0  0  0  0  0  0  0  0  0
   -5.4380   -3.9710   -0.8295 H   0  0  0  0  0  0  0  0  0  0  0  0
   -5.6039   -0.9854   -2.6618 H   0  0  0  0  0  0  0  0  0  0  0  0
   -3.0631    1.7724   -2.7386 H   0  0  0  0  0  0  0  0  0  0  0  0
   -5.8127    1.8849   -3.0370 H   0  0  0  0  0  0  0  0  0  0  0  0
   -4.5920    2.7346   -3.9573 H   0  0  0  0  0  0  0  0  0  0  0  0
   -6.1684    1.6152   -5.4680 H   0  0  0  0  0  0  0  0  0  0  0  0
   -5.8277    0.0609   -4.7331 H   0  0  0  0  0  0  0  0  0  0  0  0
   -4.0954    1.7187   -6.5707 H   0  0  0  0  0  0  0  0  0  0  0  0
   -4.4771    0.0098   -6.6315 H   0  0  0  0  0  0  0  0  0  0  0  0
   -2.3125   -0.1857   -5.8695 H   0  0  0  0  0  0  0  0  0  0  0  0
   -2.2897    1.4390   -5.2044 H   0  0  0  0  0  0  0  0  0  0  0  0
   -2.1019   -0.2831   -3.4200 H   0  0  0  0  0  0  0  0  0  0  0  0
   -3.6300   -0.9794   -3.9167 H   0  0  0  0  0  0  0  0  0  0  0  0
   -4.2068    3.3651    0.2867 H   0  0  0  0  0  0  0  0  0  0  0  0
    1.1328    4.8475    0.2164 H   0  0  0  0  0  0  0  0  0  0  0  0
    0.3489    7.0079    1.0075 H   0  0  0  0  0  0  0  0  0  0  0  0
   -2.0750    7.4194    1.3481 H   0  0  0  0  0  0  0  0  0  0  0  0
   -3.6947    5.6252    0.9145 H   0  0  0  0  0  0  0  0  0  0  0  0
  1  2  2  0  0  0  0
  2  4  1  0  0  0  0
  2  3  1  0  0  0  0
  5  4  1  0  0  0  0
  6  5  1  0  0  0  0
  6  7  1  0  0  0  0
  7  8  2  0  0  0  0
  8 15  1  0  0  0  0
  8  9  1  0  0  0  0
  9 14  1  0  0  0  0
  9 10  1  0  0  0  0
 10 11  1  0  0  0  0
 11 78  1  0  0  0  0
 11 12  1  0  0  0  0
 11 79  1  0  0  0  0
 12 81  1  0  0  0  0
 12 80  1  0  0  0  0
 13 82  1  0  0  0  0
 13 12  1  0  0  0  0
 14 84  1  0  0  0  0
 14 13  1  0  0  0  0
 15 86  1  0  0  0  0
 16 15  2  0  0  0  0
 16 17  1  0  0  0  0
 17 18  1  0  0  0  0
 17 22  1  0  0  0  0
 18 88  1  0  0  0  0
 18 19  1  0  0  0  0
 19 20  1  0  0  0  0
 19 90  1  0  0  0  0
 20 21  1  0  0  0  0
 20 92  1  0  0  0  0
 21 94  1  0  0  0  0
 22 21  1  0  0  0  0
 22 96  1  0  0  0  0
 23 16  1  0  0  0  0
 24 23  2  0  0  0  0
 24  7  1  0  0  0  0
 25 24  1  0  0  0  0
 26 25  1  0  0  0  0
 26101  1  0  0  0  0
 27 26  1  0  0  0  0
 27103  1  0  0  0  0
 28 29  1  0  0  0  0
 28 27  1  0  0  0  0
 29 30  1  0  0  0  0
 29107  1  0  0  0  0
 30108  1  0  0  0  0
 30 25  1  0  0  0  0
 31  6  2  0  0  0  0
 32 33  1  0  0  0  0
 32 31  1  0  0  0  0
 33 38  1  0  0  0  0
 34111  1  0  0  0  0
 34 33  2  0  0  0  0
 35 34  1  0  0  0  0
 36 35  2  0  0  0  0
 36 37  1  0  0  0  0
 37 32  2  0  0  0  0
 38 39  1  0  0  0  0
 38  5  2  0  0  0  0
 39 69  1  0  0  0  0
 40 39  2  0  0  0  0
 40 42  1  0  0  0  0
 41 40  1  0  0  0  0
 41  2  1  0  0  0  0
 42 67  2  0  0  0  0
 43 42  1  0  0  0  0
 43 44  2  0  0  0  0
 44 45  1  0  0  0  0
 45 50  1  0  0  0  0
 45 46  1  0  0  0  0
 46 47  1  0  0  0  0
 47119  1  0  0  0  0
 47 48  1  0  0  0  0
 47118  1  0  0  0  0
 48121  1  0  0  0  0
 49123  1  0  0  0  0
 49 48  1  0  0  0  0
 50124  1  0  0  0  0
 50 49  1  0  0  0  0
 51 44  1  0  0  0  0
 51126  1  0  0  0  0
 52 51  2  0  0  0  0
 53 52  1  0  0  0  0
 53127  1  0  0  0  0
 54129  1  0  0  0  0
 54 53  1  0  0  0  0
 55 54  1  0  0  0  0
 55130  1  0  0  0  0
 56133  1  0  0  0  0
 56 57  1  0  0  0  0
 56 55  1  0  0  0  0
 57 58  1  0  0  0  0
 57134  1  0  0  0  0
 58137  1  0  0  0  0
 58 53  1  0  0  0  0
 59 60  2  0  0  0  0
 59 52  1  0  0  0  0
 60 43  1  0  0  0  0
 61139  1  0  0  0  0
 61 60  1  0  0  0  0
 62140  1  0  0  0  0
 62 61  1  0  0  0  0
 63143  1  0  0  0  0
 63 62  1  0  0  0  0
 64 65  1  0  0  0  0
 64 63  1  0  0  0  0
 65147  1  0  0  0  0
 65 66  1  0  0  0  0
 66148  1  0  0  0  0
 66 61  1  0  0  0  0
 67 68  1  0  0  0  0
 67150  1  0  0  0  0
 68 73  1  0  0  0  0
 69 68  2  0  0  0  0
 69 70  1  0  0  0  0
 70 71  2  0  0  0  0
 71 72  1  0  0  0  0
 71152  1  0  0  0  0
 72153  1  0  0  0  0
 73154  1  0  0  0  0
 73 72  2  0  0  0  0
 74  3  1  0  0  0  0
 75  9  1  0  0  0  0
 76 10  1  0  0  0  0
 77 10  1  0  0  0  0
 83 13  1  0  0  0  0
 85 14  1  0  0  0  0
 87 17  1  0  0  0  0
 89 18  1  0  0  0  0
 91 19  1  0  0  0  0
 93 20  1  0  0  0  0
 95 21  1  0  0  0  0
 97 22  1  0  0  0  0
 98 23  1  0  0  0  0
 99 25  1  0  0  0  0
100 26  1  0  0  0  0
102 27  1  0  0  0  0
104 28  1  0  0  0  0
105 28  1  0  0  0  0
106 29  1  0  0  0  0
109 30  1  0  0  0  0
110 31  1  0  0  0  0
112 35  1  0  0  0  0
113 36  1  0  0  0  0
114 37  1  0  0  0  0
115 45  1  0  0  0  0
116 46  1  0  0  0  0
117 46  1  0  0  0  0
120 48  1  0  0  0  0
122 49  1  0  0  0  0
125 50  1  0  0  0  0
128 54  1  0  0  0  0
131 55  1  0  0  0  0
132 56  1  0  0  0  0
135 57  1  0  0  0  0
136 58  1  0  0  0  0
138 59  1  0  0  0  0
141 62  1  0  0  0  0
142 63  1  0  0  0  0
144 64  1  0  0  0  0
145 64  1  0  0  0  0
146 65  1  0  0  0  0
149 66  1  0  0  0  0
151 70  1  0  0  0  0
M  END
$$$$
