O=P1(O)OC2=C(C3=CC=C(C(C)(C)C)C=C3)C=C4C(C=CC=C4)=C2C5=C(O1)C(C6=CC=C(C(C)(C)C)C=C6)=CC7=C5C=CC=C7
 OpenBabel09032010373D

 82 88  0  0  0  0  0  0  0  0999 V2000
   -0.6019    1.7856   -0.9036 O   0  0  0  0  0  0  0  0  0  0  0  0
    0.0132    0.6990   -0.0783 P   0  0  0  0  0  0  0  0  0  0  0  0
    0.8702    1.2983    1.1449 O   0  0  0  0  0  0  0  0  0  0  0  0
    1.0789   -0.2184   -0.8631 O   0  0  0  0  0  0  0  0  0  0  0  0
    1.5705   -1.3460   -0.2436 C   0  0  0  0  0  0  0  0  0  0  0  0
    2.9335   -1.3278    0.1048 C   0  0  0  0  0  0  0  0  0  0  0  0
    3.7833   -0.1469   -0.1165 C   0  0  0  0  0  0  0  0  0  0  0  0
    4.0753    0.3077   -1.4072 C   0  0  0  0  0  0  0  0  0  0  0  0
    4.8661    1.4459   -1.6137 C   0  0  0  0  0  0  0  0  0  0  0  0
    5.3964    2.1718   -0.5363 C   0  0  0  0  0  0  0  0  0  0  0  0
    6.2677    3.4257   -0.7263 C   0  0  0  0  0  0  0  0  0  0  0  0
    6.4977    3.8083   -2.2059 C   0  0  0  0  0  0  0  0  0  0  0  0
    5.5934    4.6345   -0.0421 C   0  0  0  0  0  0  0  0  0  0  0  0
    7.6567    3.1934   -0.0936 C   0  0  0  0  0  0  0  0  0  0  0  0
    5.1014    1.7048    0.7580 C   0  0  0  0  0  0  0  0  0  0  0  0
    4.3120    0.5678    0.9642 C   0  0  0  0  0  0  0  0  0  0  0  0
    3.4695   -2.4729    0.6954 C   0  0  0  0  0  0  0  0  0  0  0  0
    2.6771   -3.5913    0.9701 C   0  0  0  0  0  0  0  0  0  0  0  0
    1.2977   -3.5925    0.6272 C   0  0  0  0  0  0  0  0  0  0  0  0
    0.5531   -4.7267    1.0413 C   0  0  0  0  0  0  0  0  0  0  0  0
    1.1400   -5.8200    1.6847 C   0  0  0  0  0  0  0  0  0  0  0  0
    2.4978   -5.8113    1.9582 C   0  0  0  0  0  0  0  0  0  0  0  0
    3.2588   -4.6995    1.6097 C   0  0  0  0  0  0  0  0  0  0  0  0
    0.7164   -2.4595   -0.0526 C   0  0  0  0  0  0  0  0  0  0  0  0
   -0.6533   -2.4153   -0.5267 C   0  0  0  0  0  0  0  0  0  0  0  0
   -1.5094   -1.3542   -0.1324 C   0  0  0  0  0  0  0  0  0  0  0  0
   -0.9993   -0.3305    0.6369 O   0  0  0  0  0  0  0  0  0  0  0  0
   -2.8848   -1.3151   -0.4174 C   0  0  0  0  0  0  0  0  0  0  0  0
   -3.7645   -0.2463    0.0721 C   0  0  0  0  0  0  0  0  0  0  0  0
   -4.5713   -0.4429    1.1986 C   0  0  0  0  0  0  0  0  0  0  0  0
   -5.4248    0.5671    1.6630 C   0  0  0  0  0  0  0  0  0  0  0  0
   -5.5032    1.8102    1.0166 C   0  0  0  0  0  0  0  0  0  0  0  0
   -6.4237    2.9438    1.4996 C   0  0  0  0  0  0  0  0  0  0  0  0
   -7.2562    2.5821    2.7504 C   0  0  0  0  0  0  0  0  0  0  0  0
   -7.4203    3.3164    0.3807 C   0  0  0  0  0  0  0  0  0  0  0  0
   -5.5759    4.1834    1.8581 C   0  0  0  0  0  0  0  0  0  0  0  0
   -4.6885    1.9956   -0.1160 C   0  0  0  0  0  0  0  0  0  0  0  0
   -3.8368    0.9868   -0.5810 C   0  0  0  0  0  0  0  0  0  0  0  0
   -3.4240   -2.3483   -1.1858 C   0  0  0  0  0  0  0  0  0  0  0  0
   -2.6239   -3.3780   -1.6883 C   0  0  0  0  0  0  0  0  0  0  0  0
   -1.2367   -3.4164   -1.3851 C   0  0  0  0  0  0  0  0  0  0  0  0
   -0.4868   -4.4443   -2.0120 C   0  0  0  0  0  0  0  0  0  0  0  0
   -1.0746   -5.4112   -2.8322 C   0  0  0  0  0  0  0  0  0  0  0  0
   -2.4386   -5.3747   -3.0713 C   0  0  0  0  0  0  0  0  0  0  0  0
   -3.2063   -4.3600   -2.5074 C   0  0  0  0  0  0  0  0  0  0  0  0
    1.4031    2.0553    0.8403 H   0  0  0  0  0  0  0  0  0  0  0  0
    3.6826   -0.2236   -2.2728 H   0  0  0  0  0  0  0  0  0  0  0  0
    5.0497    1.7405   -2.6435 H   0  0  0  0  0  0  0  0  0  0  0  0
    7.0093    3.0090   -2.7546 H   0  0  0  0  0  0  0  0  0  0  0  0
    5.5530    4.0242   -2.7184 H   0  0  0  0  0  0  0  0  0  0  0  0
    7.1218    4.7062   -2.2894 H   0  0  0  0  0  0  0  0  0  0  0  0
    4.5897    4.8082   -0.4480 H   0  0  0  0  0  0  0  0  0  0  0  0
    6.1771    5.5502   -0.1924 H   0  0  0  0  0  0  0  0  0  0  0  0
    5.4908    4.4945    1.0396 H   0  0  0  0  0  0  0  0  0  0  0  0
    8.3103    4.0605   -0.2454 H   0  0  0  0  0  0  0  0  0  0  0  0
    8.1513    2.3211   -0.5371 H   0  0  0  0  0  0  0  0  0  0  0  0
    7.5969    3.0233    0.9870 H   0  0  0  0  0  0  0  0  0  0  0  0
    5.4854    2.2231    1.6343 H   0  0  0  0  0  0  0  0  0  0  0  0
    4.1001    0.2502    1.9839 H   0  0  0  0  0  0  0  0  0  0  0  0
    4.5256   -2.4797    0.9637 H   0  0  0  0  0  0  0  0  0  0  0  0
   -0.5221   -4.7711    0.8773 H   0  0  0  0  0  0  0  0  0  0  0  0
    0.5278   -6.6700    1.9741 H   0  0  0  0  0  0  0  0  0  0  0  0
    2.9620   -6.6567    2.4586 H   0  0  0  0  0  0  0  0  0  0  0  0
    4.3188   -4.6996    1.8576 H   0  0  0  0  0  0  0  0  0  0  0  0
   -4.5380   -1.3908    1.7323 H   0  0  0  0  0  0  0  0  0  0  0  0
   -6.0189    0.3478    2.5455 H   0  0  0  0  0  0  0  0  0  0  0  0
   -6.6150    2.3406    3.6061 H   0  0  0  0  0  0  0  0  0  0  0  0
   -7.9138    1.7251    2.5635 H   0  0  0  0  0  0  0  0  0  0  0  0
   -7.8965    3.4190    3.0544 H   0  0  0  0  0  0  0  0  0  0  0  0
   -8.0185    2.4480    0.0800 H   0  0  0  0  0  0  0  0  0  0  0  0
   -8.1123    4.0994    0.7123 H   0  0  0  0  0  0  0  0  0  0  0  0
   -6.9157    3.6941   -0.5153 H   0  0  0  0  0  0  0  0  0  0  0  0
   -5.0321    4.5780    0.9929 H   0  0  0  0  0  0  0  0  0  0  0  0
   -4.8356    3.9448    2.6311 H   0  0  0  0  0  0  0  0  0  0  0  0
   -6.2054    4.9962    2.2387 H   0  0  0  0  0  0  0  0  0  0  0  0
   -4.6988    2.9384   -0.6589 H   0  0  0  0  0  0  0  0  0  0  0  0
   -3.2226    1.1802   -1.4588 H   0  0  0  0  0  0  0  0  0  0  0  0
   -4.4888   -2.3264   -1.4174 H   0  0  0  0  0  0  0  0  0  0  0  0
    0.5922   -4.4998   -1.8785 H   0  0  0  0  0  0  0  0  0  0  0  0
   -0.4589   -6.1840   -3.2847 H   0  0  0  0  0  0  0  0  0  0  0  0
   -2.9039   -6.1212   -3.7088 H   0  0  0  0  0  0  0  0  0  0  0  0
   -4.2723   -4.3334   -2.7269 H   0  0  0  0  0  0  0  0  0  0  0  0
  1  2  2  0  0  0  0
  2 27  1  0  0  0  0
  2  3  1  0  0  0  0
  4  5  1  0  0  0  0
  4  2  1  0  0  0  0
  5 24  2  0  0  0  0
  5  6  1  0  0  0  0
  6 17  2  0  0  0  0
  7  6  1  0  0  0  0
  7 16  2  0  0  0  0
  8  7  1  0  0  0  0
  9  8  2  0  0  0  0
  9 10  1  0  0  0  0
 10 15  2  0  0  0  0
 11 10  1  0  0  0  0
 11 14  1  0  0  0  0
 11 13  1  0  0  0  0
 12 11  1  0  0  0  0
 13 54  1  0  0  0  0
 14 57  1  0  0  0  0
 15 16  1  0  0  0  0
 15 58  1  0  0  0  0
 16 59  1  0  0  0  0
 17 60  1  0  0  0  0
 17 18  1  0  0  0  0
 18 23  1  0  0  0  0
 19 18  2  0  0  0  0
 19 20  1  0  0  0  0
 20 21  2  0  0  0  0
 21 22  1  0  0  0  0
 21 62  1  0  0  0  0
 22 63  1  0  0  0  0
 23 64  1  0  0  0  0
 23 22  2  0  0  0  0
 24 19  1  0  0  0  0
 25 26  2  0  0  0  0
 25 24  1  0  0  0  0
 26 27  1  0  0  0  0
 28 26  1  0  0  0  0
 28 29  1  0  0  0  0
 29 30  2  0  0  0  0
 30 31  1  0  0  0  0
 30 65  1  0  0  0  0
 31 66  1  0  0  0  0
 32 33  1  0  0  0  0
 32 31  2  0  0  0  0
 33 36  1  0  0  0  0
 33 34  1  0  0  0  0
 34 69  1  0  0  0  0
 34 67  1  0  0  0  0
 35 71  1  0  0  0  0
 35 33  1  0  0  0  0
 36 75  1  0  0  0  0
 36 74  1  0  0  0  0
 37 32  1  0  0  0  0
 38 37  2  0  0  0  0
 38 29  1  0  0  0  0
 39 28  2  0  0  0  0
 40 41  1  0  0  0  0
 40 39  1  0  0  0  0
 41 25  1  0  0  0  0
 42 79  1  0  0  0  0
 42 41  2  0  0  0  0
 43 42  1  0  0  0  0
 44 43  2  0  0  0  0
 44 45  1  0  0  0  0
 45 40  2  0  0  0  0
 46  3  1  0  0  0  0
 47  8  1  0  0  0  0
 48  9  1  0  0  0  0
 49 12  1  0  0  0  0
 50 12  1  0  0  0  0
 51 12  1  0  0  0  0
 52 13  1  0  0  0  0
 53 13  1  0  0  0  0
 55 14  1  0  0  0  0
 56 14  1  0  0  0  0
 61 20  1  0  0  0  0
 68 34  1  0  0  0  0
 70 35  1  0  0  0  0
 72 35  1  0  0  0  0
 73 36  1  0  0  0  0
 76 37  1  0  0  0  0
 77 38  1  0  0  0  0
 78 39  1  0  0  0  0
 80 43  1  0  0  0  0
 81 44  1  0  0  0  0
 82 45  1  0  0  0  0
M  END
$$$$
