O=P1(O)OC2=C(C3=C(C=CC=C4)C4=C(C5=CC(C=CC=C6)=C6C=C5)C7=C3C=CC=C7)C=C8C(C=CC=C8)=[C@]2[C@]9=C(O1)C(C%10=C(C=CC=C%11)C%11=C(C%12=CC=C(C=CC=C%13)C%13=C%12)C%14=C%10C=CC=C%14)=CC%15=C9C=CC=C%15
 OpenBabel09032010373D

114128  0  0  0  0  0  0  0  0999 V2000
    0.3563    1.1863   -0.2477 O   0  0  0  0  0  0  0  0  0  0  0  0
   -0.0889   -0.2282   -0.0591 P   0  0  0  0  0  0  0  0  0  0  0  0
   -0.7530   -0.8161   -1.3997 O   0  0  0  0  0  0  0  0  0  0  0  0
   -1.2361   -0.4355    1.0523 O   0  0  0  0  0  0  0  0  0  0  0  0
   -1.6134   -1.7104    1.4093 C   0  0  0  0  0  0  0  0  0  0  0  0
   -2.9500   -2.0628    1.1374 C   0  0  0  0  0  0  0  0  0  0  0  0
   -3.9024   -1.1157    0.4978 C   0  0  0  0  0  0  0  0  0  0  0  0
   -4.1585   -1.2052   -0.9057 C   0  0  0  0  0  0  0  0  0  0  0  0
   -3.5457   -2.1832   -1.7345 C   0  0  0  0  0  0  0  0  0  0  0  0
   -3.7840   -2.2651   -3.1055 C   0  0  0  0  0  0  0  0  0  0  0  0
   -4.6504   -1.3680   -3.6973 C   0  0  0  0  0  0  0  0  0  0  0  0
   -5.2696   -0.3972   -2.9121 C   0  0  0  0  0  0  0  0  0  0  0  0
   -5.0483   -0.2870   -1.5129 C   0  0  0  0  0  0  0  0  0  0  0  0
   -5.6857    0.7115   -0.7144 C   0  0  0  0  0  0  0  0  0  0  0  0
   -6.6097    1.6786   -1.3531 C   0  0  0  0  0  0  0  0  0  0  0  0
   -6.1299    2.9015   -1.8512 C   0  0  0  0  0  0  0  0  0  0  0  0
   -6.9903    3.8284   -2.4624 C   0  0  0  0  0  0  0  0  0  0  0  0
   -6.5124    5.0507   -2.9610 C   0  0  0  0  0  0  0  0  0  0  0  0
   -7.3790    5.9616   -3.5666 C   0  0  0  0  0  0  0  0  0  0  0  0
   -8.7336    5.6630   -3.6815 C   0  0  0  0  0  0  0  0  0  0  0  0
   -9.2242    4.4519   -3.1904 C   0  0  0  0  0  0  0  0  0  0  0  0
   -8.3655    3.5247   -2.5782 C   0  0  0  0  0  0  0  0  0  0  0  0
   -8.8436    2.3039   -2.0789 C   0  0  0  0  0  0  0  0  0  0  0  0
   -7.9761    1.3918   -1.4733 C   0  0  0  0  0  0  0  0  0  0  0  0
   -5.4410    0.7929    0.6905 C   0  0  0  0  0  0  0  0  0  0  0  0
   -4.5505   -0.1234    1.2986 C   0  0  0  0  0  0  0  0  0  0  0  0
   -4.3383   -0.0138    2.6996 C   0  0  0  0  0  0  0  0  0  0  0  0
   -4.9614    0.9566    3.4825 C   0  0  0  0  0  0  0  0  0  0  0  0
   -5.8265    1.8530    2.8875 C   0  0  0  0  0  0  0  0  0  0  0  0
   -6.0609    1.7692    1.5160 C   0  0  0  0  0  0  0  0  0  0  0  0
   -3.3875   -3.3347    1.5114 C   0  0  0  0  0  0  0  0  0  0  0  0
   -2.5182   -4.2528    2.1024 C   0  0  0  0  0  0  0  0  0  0  0  0
   -1.1749   -3.8849    2.3862 C   0  0  0  0  0  0  0  0  0  0  0  0
   -0.3430   -4.9113    2.9019 C   0  0  0  0  0  0  0  0  0  0  0  0
   -0.8168   -6.1959    3.1828 C   0  0  0  0  0  0  0  0  0  0  0  0
   -2.1445   -6.5082    2.9401 C   0  0  0  0  0  0  0  0  0  0  0  0
   -2.9877   -5.5435    2.3975 C   0  0  0  0  0  0  0  0  0  0  0  0
   -0.7082   -2.5481    2.1058 C   0  0  0  0  0  0  0  0  0  0  0  0
    0.5868   -2.0431    2.5240 C   0  0  0  0  0  0  0  0  0  0  0  0
    1.4592   -1.4427    1.5837 C   0  0  0  0  0  0  0  0  0  0  0  0
    1.0528   -1.3098    0.2766 O   0  0  0  0  0  0  0  0  0  0  0  0
    2.7788   -1.0552    1.8787 C   0  0  0  0  0  0  0  0  0  0  0  0
    3.6806   -0.4748    0.8497 C   0  0  0  0  0  0  0  0  0  0  0  0
    4.3830   -1.3418   -0.0442 C   0  0  0  0  0  0  0  0  0  0  0  0
    4.2668   -2.7570    0.0145 C   0  0  0  0  0  0  0  0  0  0  0  0
    4.9428   -3.6049   -0.8615 C   0  0  0  0  0  0  0  0  0  0  0  0
    5.7645   -3.0624   -1.8295 C   0  0  0  0  0  0  0  0  0  0  0  0
    5.9039   -1.6777   -1.9107 C   0  0  0  0  0  0  0  0  0  0  0  0
    5.2299   -0.7867   -1.0327 C   0  0  0  0  0  0  0  0  0  0  0  0
    5.3792    0.6316   -1.1179 C   0  0  0  0  0  0  0  0  0  0  0  0
    6.2472    1.2146   -2.1684 C   0  0  0  0  0  0  0  0  0  0  0  0
    5.7163    1.5552   -3.4199 C   0  0  0  0  0  0  0  0  0  0  0  0
    6.5290    2.1105   -4.4100 C   0  0  0  0  0  0  0  0  0  0  0  0
    7.8927    2.3387   -4.1727 C   0  0  0  0  0  0  0  0  0  0  0  0
    8.7228    2.8976   -5.1579 C   0  0  0  0  0  0  0  0  0  0  0  0
   10.0777    3.1206   -4.9074 C   0  0  0  0  0  0  0  0  0  0  0  0
   10.6190    2.7875   -3.6693 C   0  0  0  0  0  0  0  0  0  0  0  0
    9.8075    2.2303   -2.6794 C   0  0  0  0  0  0  0  0  0  0  0  0
    8.4427    1.9999   -2.9156 C   0  0  0  0  0  0  0  0  0  0  0  0
    7.6127    1.4413   -1.9291 C   0  0  0  0  0  0  0  0  0  0  0  0
    4.6935    1.4975   -0.2115 C   0  0  0  0  0  0  0  0  0  0  0  0
    3.8377    0.9444    0.7705 C   0  0  0  0  0  0  0  0  0  0  0  0
    3.1590    1.8399    1.6409 C   0  0  0  0  0  0  0  0  0  0  0  0
    3.3154    3.2234    1.5690 C   0  0  0  0  0  0  0  0  0  0  0  0
    4.1584    3.7615    0.6174 C   0  0  0  0  0  0  0  0  0  0  0  0
    4.8319    2.9111   -0.2575 C   0  0  0  0  0  0  0  0  0  0  0  0
    3.2431   -1.2349    3.1834 C   0  0  0  0  0  0  0  0  0  0  0  0
    2.4112   -1.7380    4.1853 C   0  0  0  0  0  0  0  0  0  0  0  0
    1.0774   -2.1219    3.8799 C   0  0  0  0  0  0  0  0  0  0  0  0
    0.2777   -2.5228    4.9811 C   0  0  0  0  0  0  0  0  0  0  0  0
    0.7758   -2.6087    6.2844 C   0  0  0  0  0  0  0  0  0  0  0  0
    2.0964   -2.2774    6.5398 C   0  0  0  0  0  0  0  0  0  0  0  0
    2.9061   -1.8377    5.4967 C   0  0  0  0  0  0  0  0  0  0  0  0
   -1.3084   -0.1419   -1.8321 H   0  0  0  0  0  0  0  0  0  0  0  0
   -2.8436   -2.9039   -1.3173 H   0  0  0  0  0  0  0  0  0  0  0  0
   -3.2886   -3.0274   -3.7008 H   0  0  0  0  0  0  0  0  0  0  0  0
   -4.8501   -1.4166   -4.7642 H   0  0  0  0  0  0  0  0  0  0  0  0
   -5.9456    0.2884   -3.4215 H   0  0  0  0  0  0  0  0  0  0  0  0
   -5.0690    3.1294   -1.7571 H   0  0  0  0  0  0  0  0  0  0  0  0
   -5.4568    5.3014   -2.8803 H   0  0  0  0  0  0  0  0  0  0  0  0
   -6.9943    6.9036   -3.9479 H   0  0  0  0  0  0  0  0  0  0  0  0
   -9.4093    6.3717   -4.1532 H   0  0  0  0  0  0  0  0  0  0  0  0
  -10.2854    4.2353   -3.2890 H   0  0  0  0  0  0  0  0  0  0  0  0
   -9.8991    2.0526   -2.1575 H   0  0  0  0  0  0  0  0  0  0  0  0
   -8.3711    0.4516   -1.0936 H   0  0  0  0  0  0  0  0  0  0  0  0
   -3.6643   -0.6966    3.2132 H   0  0  0  0  0  0  0  0  0  0  0  0
   -4.7634    1.0064    4.5496 H   0  0  0  0  0  0  0  0  0  0  0  0
   -6.3214    2.6177    3.4797 H   0  0  0  0  0  0  0  0  0  0  0  0
   -6.7513    2.4960    1.0906 H   0  0  0  0  0  0  0  0  0  0  0  0
   -4.4211   -3.6143    1.3089 H   0  0  0  0  0  0  0  0  0  0  0  0
    0.7142   -4.7248    3.0830 H   0  0  0  0  0  0  0  0  0  0  0  0
   -0.1410   -6.9469    3.5839 H   0  0  0  0  0  0  0  0  0  0  0  0
   -2.5223   -7.5040    3.1535 H   0  0  0  0  0  0  0  0  0  0  0  0
   -4.0215   -5.8163    2.1916 H   0  0  0  0  0  0  0  0  0  0  0  0
    3.6276   -3.2292    0.7579 H   0  0  0  0  0  0  0  0  0  0  0  0
    4.8191   -4.6813   -0.7834 H   0  0  0  0  0  0  0  0  0  0  0  0
    6.2988   -3.7055   -2.5230 H   0  0  0  0  0  0  0  0  0  0  0  0
    6.5625   -1.2943   -2.6885 H   0  0  0  0  0  0  0  0  0  0  0  0
    4.6608    1.3900   -3.6272 H   0  0  0  0  0  0  0  0  0  0  0  0
    6.0878    2.3647   -5.3711 H   0  0  0  0  0  0  0  0  0  0  0  0
    8.3171    3.1645   -6.1311 H   0  0  0  0  0  0  0  0  0  0  0  0
   10.7087    3.5542   -5.6788 H   0  0  0  0  0  0  0  0  0  0  0  0
   11.6735    2.9604   -3.4713 H   0  0  0  0  0  0  0  0  0  0  0  0
   10.2498    1.9768   -1.7185 H   0  0  0  0  0  0  0  0  0  0  0  0
    8.0284    1.1788   -0.9576 H   0  0  0  0  0  0  0  0  0  0  0  0
    2.4705    1.4663    2.3961 H   0  0  0  0  0  0  0  0  0  0  0  0
    2.7698    3.8702    2.2499 H   0  0  0  0  0  0  0  0  0  0  0  0
    4.2892    4.8371    0.5425 H   0  0  0  0  0  0  0  0  0  0  0  0
    5.4793    3.3799   -0.9969 H   0  0  0  0  0  0  0  0  0  0  0  0
    4.2664   -0.9433    3.4194 H   0  0  0  0  0  0  0  0  0  0  0  0
   -0.7734   -2.7671    4.8392 H   0  0  0  0  0  0  0  0  0  0  0  0
    0.1245   -2.9293    7.0934 H   0  0  0  0  0  0  0  0  0  0  0  0
    2.4937   -2.3410    7.5490 H   0  0  0  0  0  0  0  0  0  0  0  0
    3.9335   -1.5560    5.7218 H   0  0  0  0  0  0  0  0  0  0  0  0
  1  2  2  0  0  0  0
  2 41  1  0  0  0  0
  2  4  1  0  0  0  0
  3  2  1  0  0  0  0
  4  5  1  0  0  0  0
  5 38  1  0  0  0  0
  6  5  2  0  0  0  0
  6 31  1  0  0  0  0
  7  6  1  0  0  0  0
  7 26  2  0  0  0  0
  8  7  1  0  0  0  0
  9 75  1  0  0  0  0
  9  8  2  0  0  0  0
 10  9  1  0  0  0  0
 11 10  2  0  0  0  0
 11 12  1  0  0  0  0
 12 13  2  0  0  0  0
 13  8  1  0  0  0  0
 13 14  1  0  0  0  0
 14 25  2  0  0  0  0
 15 14  1  0  0  0  0
 16 79  1  0  0  0  0
 16 15  2  0  0  0  0
 17 16  1  0  0  0  0
 18 80  1  0  0  0  0
 18 17  2  0  0  0  0
 19 18  1  0  0  0  0
 20 19  2  0  0  0  0
 20 21  1  0  0  0  0
 21 22  2  0  0  0  0
 22 17  1  0  0  0  0
 22 23  1  0  0  0  0
 23 24  2  0  0  0  0
 24 15  1  0  0  0  0
 24 85  1  0  0  0  0
 25 26  1  0  0  0  0
 25 30  1  0  0  0  0
 26 27  1  0  0  0  0
 27 86  1  0  0  0  0
 27 28  2  0  0  0  0
 28 87  1  0  0  0  0
 29 88  1  0  0  0  0
 29 28  1  0  0  0  0
 30 29  2  0  0  0  0
 31 32  2  0  0  0  0
 32 33  1  0  0  0  0
 32 37  1  0  0  0  0
 33 34  1  0  0  0  0
 34 91  1  0  0  0  0
 34 35  2  0  0  0  0
 35 92  1  0  0  0  0
 36 93  1  0  0  0  0
 36 35  1  0  0  0  0
 37 36  2  0  0  0  0
 38 33  2  0  0  0  0
 38 39  1  0  0  0  0
 39 69  2  0  0  0  0
 40 42  2  0  0  0  0
 40 39  1  0  0  0  0
 41 40  1  0  0  0  0
 42 67  1  0  0  0  0
 43 42  1  0  0  0  0
 44 45  1  0  0  0  0
 44 43  2  0  0  0  0
 45 95  1  0  0  0  0
 46 96  1  0  0  0  0
 46 45  2  0  0  0  0
 47 46  1  0  0  0  0
 48 47  2  0  0  0  0
 48 49  1  0  0  0  0
 49 44  1  0  0  0  0
 50 49  2  0  0  0  0
 50 61  1  0  0  0  0
 51 60  1  0  0  0  0
 51 50  1  0  0  0  0
 52 51  2  0  0  0  0
 53 54  2  0  0  0  0
 53 52  1  0  0  0  0
 54 59  1  0  0  0  0
 55 56  2  0  0  0  0
 55 54  1  0  0  0  0
 56 57  1  0  0  0  0
 57103  1  0  0  0  0
 57 58  2  0  0  0  0
 58104  1  0  0  0  0
 59 58  1  0  0  0  0
 59 60  2  0  0  0  0
 60105  1  0  0  0  0
 61 62  1  0  0  0  0
 62 43  1  0  0  0  0
 62 63  2  0  0  0  0
 63106  1  0  0  0  0
 64 63  1  0  0  0  0
 64107  1  0  0  0  0
 65 64  2  0  0  0  0
 66 61  2  0  0  0  0
 66 65  1  0  0  0  0
 67110  1  0  0  0  0
 67 68  2  0  0  0  0
 68 73  1  0  0  0  0
 69 68  1  0  0  0  0
 69 70  1  0  0  0  0
 70 71  2  0  0  0  0
 71 72  1  0  0  0  0
 71112  1  0  0  0  0
 72113  1  0  0  0  0
 73114  1  0  0  0  0
 73 72  2  0  0  0  0
 74  3  1  0  0  0  0
 76 10  1  0  0  0  0
 77 11  1  0  0  0  0
 78 12  1  0  0  0  0
 81 19  1  0  0  0  0
 82 20  1  0  0  0  0
 83 21  1  0  0  0  0
 84 23  1  0  0  0  0
 89 30  1  0  0  0  0
 90 31  1  0  0  0  0
 94 37  1  0  0  0  0
 97 47  1  0  0  0  0
 98 48  1  0  0  0  0
 99 52  1  0  0  0  0
100 53  1  0  0  0  0
101 55  1  0  0  0  0
102 56  1  0  0  0  0
108 65  1  0  0  0  0
109 66  1  0  0  0  0
111 70  1  0  0  0  0
M  END
$$$$
