O=P1(O)OC2=C(C3=CC=C(S(F)(F)(F)(F)F)C=C3)C=C4C(C=CC=C4)=C2C5=C(O1)C(C6=CC=C(S(F)(F)(F)(F)F)C=C6)=CC7=C5C=CC=C7
 OpenBabel09032010373D

 68 67  0  0  0  0  0  0  0  0999 V2000
    0.1526   -1.6023   -2.6481 O   0  0  0  0  0  0  0  0  0  0  0  0
   -0.1413   -1.5648   -1.1784 P   0  0  2  0  0  0  0  0  0  0  0  0
   -0.6519   -3.0896   -0.7231 O   0  0  0  0  0  0  0  0  0  0  0  0
   -1.4089   -0.3615   -0.9724 O   0  0  0  0  0  0  0  0  0  0  0  0
   -1.6080    0.3221    0.2270 C   0  0  0  0  0  0  0  0  0  0  0  0
   -2.8401    0.4171    0.7767 C   0  0  0  0  0  0  0  0  0  0  0  0
   -3.9686   -0.1848    0.0477 C   0  0  0  0  0  0  0  0  0  0  0  0
   -4.8853   -0.9700    0.7128 C   0  0  0  0  0  0  0  0  0  0  0  0
   -5.9381   -1.5088   -0.0476 C   0  0  0  0  0  0  0  0  0  0  0  0
   -6.1225   -1.3152   -1.3885 C   0  0  0  0  0  0  0  0  0  0  0  0
   -7.6324   -2.0867   -2.4247 S   0  0  0  0  0  0  0  0  0  0  0  0
   -7.1607   -2.7060   -4.5979 F   0  0  0  0  0  0  0  0  0  0  0  0
   -9.1931   -3.3861   -1.6895 F   0  0  0  0  0  0  0  0  0  0  0  0
   -9.2085   -0.9900   -1.8965 F   0  0  0  0  0  0  0  0  0  0  0  0
   -7.0710   -4.0345   -2.6300 F   0  0  0  0  0  0  0  0  0  0  0  0
   -8.4547   -0.8342   -4.1464 F   0  0  0  0  0  0  0  0  0  0  0  0
   -5.2060   -0.5437   -1.9969 C   0  0  0  0  0  0  0  0  0  0  0  0
   -4.1326    0.0226   -1.2930 C   0  0  0  0  0  0  0  0  0  0  0  0
   -3.0408    1.0646    1.9917 C   0  0  0  0  0  0  0  0  0  0  0  0
   -1.9704    1.6205    2.6695 C   0  0  0  0  0  0  0  0  0  0  0  0
   -0.6476    1.5574    2.1457 C   0  0  0  0  0  0  0  0  0  0  0  0
    0.4502    1.9227    2.8880 C   0  0  0  0  0  0  0  0  0  0  0  0
    0.2583    2.3926    4.1688 C   0  0  0  0  0  0  0  0  0  0  0  0
   -1.0121    2.4862    4.6916 C   0  0  0  0  0  0  0  0  0  0  0  0
   -2.1078    2.1043    3.9541 C   0  0  0  0  0  0  0  0  0  0  0  0
   -0.5574    0.9281    0.9575 C   0  0  0  0  0  0  0  0  0  0  0  0
    0.7901    1.1927    0.3735 C   0  0  0  0  0  0  0  0  0  0  0  0
    1.6642    0.1512   -0.0340 C   0  0  0  0  0  0  0  0  0  0  0  0
    1.2817   -1.1594   -0.2320 O   0  0  0  0  0  0  0  0  0  0  0  0
    2.9488    0.5499   -0.2499 C   0  0  0  0  0  0  0  0  0  0  0  0
    3.9201   -0.4903   -0.6642 C   0  0  0  0  0  0  0  0  0  0  0  0
    3.9867   -1.6996   -0.0272 C   0  0  0  0  0  0  0  0  0  0  0  0
    4.9092   -2.6762   -0.4318 C   0  0  0  0  0  0  0  0  0  0  0  0
    5.7568   -2.4711   -1.4492 C   0  0  0  0  0  0  0  0  0  0  0  0
    6.9838   -3.9127   -2.0427 S   0  0  0  0  0  0  0  0  0  0  0  0
    7.9679   -5.0708   -0.1219 F   0  0  0  0  0  0  0  0  0  0  0  0
    6.5235   -6.0109   -1.6754 F   0  0  0  0  0  0  0  0  0  0  0  0
    6.5107   -4.6169   -3.6016 F   0  0  0  0  0  0  0  0  0  0  0  0
    8.7115   -3.6709   -3.3633 F   0  0  0  0  0  0  0  0  0  0  0  0
    8.8259   -3.0527   -1.0376 F   0  0  0  0  0  0  0  0  0  0  0  0
    5.6635   -1.2487   -2.0635 C   0  0  0  0  0  0  0  0  0  0  0  0
    4.7681   -0.2251   -1.7153 C   0  0  0  0  0  0  0  0  0  0  0  0
    3.3509    1.8642   -0.0924 C   0  0  0  0  0  0  0  0  0  0  0  0
    2.4400    2.8310    0.2880 C   0  0  0  0  0  0  0  0  0  0  0  0
    1.0762    2.5040    0.5369 C   0  0  0  0  0  0  0  0  0  0  0  0
    0.1132    3.4626    0.7220 C   0  0  0  0  0  0  0  0  0  0  0  0
    0.4700    4.8033    0.6984 C   0  0  0  0  0  0  0  0  0  0  0  0
    1.8023    5.1399    0.4801 C   0  0  0  0  0  0  0  0  0  0  0  0
    2.7561    4.1721    0.2790 C   0  0  0  0  0  0  0  0  0  0  0  0
   -1.6157   -3.2235   -0.7633 H   0  0  0  0  0  0  0  0  0  0  0  0
   -4.8562   -1.1954    1.7414 H   0  0  0  0  0  0  0  0  0  0  0  0
   -6.7186   -2.1471    0.3883 H   0  0  0  0  0  0  0  0  0  0  0  0
   -5.2936   -0.3550   -3.0412 H   0  0  0  0  0  0  0  0  0  0  0  0
   -3.4646    0.6204   -1.8739 H   0  0  0  0  0  0  0  0  0  0  0  0
   -4.0403    1.1222    2.3886 H   0  0  0  0  0  0  0  0  0  0  0  0
    1.4902    1.7861    2.6729 H   0  0  0  0  0  0  0  0  0  0  0  0
    1.0853    2.6949    4.7755 H   0  0  0  0  0  0  0  0  0  0  0  0
   -1.1834    2.8710    5.6916 H   0  0  0  0  0  0  0  0  0  0  0  0
   -3.1299    2.1737    4.3687 H   0  0  0  0  0  0  0  0  0  0  0  0
    3.3576   -1.9617    0.7961 H   0  0  0  0  0  0  0  0  0  0  0  0
    4.9300   -3.6036    0.0894 H   0  0  0  0  0  0  0  0  0  0  0  0
    6.3902   -1.1472   -2.8842 H   0  0  0  0  0  0  0  0  0  0  0  0
    4.8078    0.6665   -2.2790 H   0  0  0  0  0  0  0  0  0  0  0  0
    4.3799    2.1139   -0.2713 H   0  0  0  0  0  0  0  0  0  0  0  0
   -0.9520    3.3600    0.7667 H   0  0  0  0  0  0  0  0  0  0  0  0
   -0.2275    5.5934    0.8444 H   0  0  0  0  0  0  0  0  0  0  0  0
    2.1215    6.1535    0.4709 H   0  0  0  0  0  0  0  0  0  0  0  0
    3.7969    4.4521    0.1058 H   0  0  0  0  0  0  0  0  0  0  0  0
  2  1  2  6  0  0  0
  2  4  1  0  0  0  0
  2  3  1  0  0  0  0
  2 29  1  0  0  0  0
  4  5  1  0  0  0  0
  5  6  2  0  0  0  0
  5 26  1  0  0  0  0
  6 19  1  0  0  0  0
  7  8  1  0  0  0  0
  7  6  1  0  0  0  0
  8 51  1  0  0  0  0
  9 52  1  0  0  0  0
  9  8  2  0  0  0  0
 10  9  1  0  0  0  0
 11 14  1  0  0  0  0
 11 10  1  0  0  0  0
 15 11  1  0  0  0  0
 17 10  2  0  0  0  0
 17 18  1  0  0  0  0
 18  7  2  0  0  0  0
 19 55  1  0  0  0  0
 19 20  2  0  0  0  0
 20 25  1  0  0  0  0
 21 20  1  0  0  0  0
 21 22  1  0  0  0  0
 22 23  2  0  0  0  0
 23 24  1  0  0  0  0
 23 57  1  0  0  0  0
 24 58  1  0  0  0  0
 25 59  1  0  0  0  0
 25 24  2  0  0  0  0
 26 21  2  0  0  0  0
 27 45  1  0  0  0  0
 27 26  1  0  0  0  0
 28 27  2  0  0  0  0
 29 28  1  0  0  0  0
 30 43  2  0  0  0  0
 30 28  1  0  0  0  0
 31 30  1  0  0  0  0
 31 32  2  0  0  0  0
 32 60  1  0  0  0  0
 33 32  1  0  0  0  0
 33 61  1  0  0  0  0
 34 33  2  0  0  0  0
 35 34  1  0  0  0  0
 38 35  1  0  0  0  0
 41 42  2  0  0  0  0
 41 34  1  0  0  0  0
 42 31  1  0  0  0  0
 43 44  1  0  0  0  0
 44 45  1  0  0  0  0
 45 46  2  0  0  0  0
 46 65  1  0  0  0  0
 47 46  1  0  0  0  0
 47 66  1  0  0  0  0
 48 47  2  0  0  0  0
 49 44  2  0  0  0  0
 49 48  1  0  0  0  0
 50  3  1  0  0  0  0
 53 17  1  0  0  0  0
 54 18  1  0  0  0  0
 56 22  1  0  0  0  0
 62 41  1  0  0  0  0
 63 42  1  0  0  0  0
 64 43  1  0  0  0  0
 67 48  1  0  0  0  0
 68 49  1  0  0  0  0
M  RAD  7  12   2  13   2  16   2  36   2  37   2  39   2  40   2
M  END
$$$$
