O=P1(O)OC2=C([Si](C3=CC=CC=C3)(C4=CC=CC=C4)C5=CC=CC=C5)C=C6C(C=CC=C6)=C2C7=C(O1)C([Si](C8=CC=CC=C8)(C9=CC=CC=C9)C%10=CC=CC=C%10)=CC%11=C7C=CC=C%11
 OpenBabel09032010383D

104114  0  0  0  0  0  0  0  0999 V2000
    0.8843    0.8965    2.2351 O   0  0  0  0  0  0  0  0  0  0  0  0
    0.1222    0.8413    0.9472 P   0  0  0  0  0  0  0  0  0  0  0  0
   -0.6485    2.2147    0.6185 O   0  0  0  0  0  0  0  0  0  0  0  0
    1.0215    0.6449   -0.3776 O   0  0  0  0  0  0  0  0  0  0  0  0
    1.5769   -0.5919   -0.5712 C   0  0  0  0  0  0  0  0  0  0  0  0
    2.9687   -0.7314   -0.4185 C   0  0  0  0  0  0  0  0  0  0  0  0
    4.1735    0.6518   -0.0228 Si  0  0  0  0  0  0  0  0  0  0  0  0
    5.1025    0.0845    1.4996 C   0  0  0  0  0  0  0  0  0  0  0  0
    6.5063   -0.0036    1.5437 C   0  0  0  0  0  0  0  0  0  0  0  0
    7.1686   -0.4371    2.6970 C   0  0  0  0  0  0  0  0  0  0  0  0
    6.4444   -0.7971    3.8291 C   0  0  0  0  0  0  0  0  0  0  0  0
    5.0559   -0.7297    3.8096 C   0  0  0  0  0  0  0  0  0  0  0  0
    4.3914   -0.2993    2.6578 C   0  0  0  0  0  0  0  0  0  0  0  0
    3.3784    2.3164    0.2735 C   0  0  0  0  0  0  0  0  0  0  0  0
    3.3717    2.9366    1.5373 C   0  0  0  0  0  0  0  0  0  0  0  0
    2.7630    4.1806    1.7354 C   0  0  0  0  0  0  0  0  0  0  0  0
    2.1429    4.8326    0.6761 C   0  0  0  0  0  0  0  0  0  0  0  0
    2.1398    4.2471   -0.5845 C   0  0  0  0  0  0  0  0  0  0  0  0
    2.7685    3.0159   -0.7893 C   0  0  0  0  0  0  0  0  0  0  0  0
    5.3513    0.9143   -1.4600 C   0  0  0  0  0  0  0  0  0  0  0  0
    6.2952    1.9636   -1.4185 C   0  0  0  0  0  0  0  0  0  0  0  0
    7.1781    2.1914   -2.4778 C   0  0  0  0  0  0  0  0  0  0  0  0
    7.1336    1.3822   -3.6077 C   0  0  0  0  0  0  0  0  0  0  0  0
    6.2025    0.3510   -3.6814 C   0  0  0  0  0  0  0  0  0  0  0  0
    5.3179    0.1217   -2.6225 C   0  0  0  0  0  0  0  0  0  0  0  0
    3.4793   -2.0345   -0.5641 C   0  0  0  0  0  0  0  0  0  0  0  0
    2.6624   -3.1338   -0.8547 C   0  0  0  0  0  0  0  0  0  0  0  0
    1.2691   -2.9545   -1.0403 C   0  0  0  0  0  0  0  0  0  0  0  0
    0.5059   -4.1306   -1.2574 C   0  0  0  0  0  0  0  0  0  0  0  0
    1.0873   -5.3981   -1.3456 C   0  0  0  0  0  0  0  0  0  0  0  0
    2.4580   -5.5375   -1.2012 C   0  0  0  0  0  0  0  0  0  0  0  0
    3.2386   -4.4125   -0.9508 C   0  0  0  0  0  0  0  0  0  0  0  0
    0.6955   -1.6377   -0.9556 C   0  0  0  0  0  0  0  0  0  0  0  0
   -0.6913   -1.3423   -1.2713 C   0  0  0  0  0  0  0  0  0  0  0  0
   -1.5480   -0.6981   -0.3250 C   0  0  0  0  0  0  0  0  0  0  0  0
   -1.0149   -0.2987    0.8757 O   0  0  0  0  0  0  0  0  0  0  0  0
   -2.9360   -0.5307   -0.5065 C   0  0  0  0  0  0  0  0  0  0  0  0
   -4.1386    0.1911    0.7422 Si  0  0  0  0  0  0  0  0  0  0  0  0
   -5.4459   -1.0766    1.2099 C   0  0  0  0  0  0  0  0  0  0  0  0
   -5.4653   -2.3793    0.6771 C   0  0  0  0  0  0  0  0  0  0  0  0
   -6.4542   -3.2990    1.0435 C   0  0  0  0  0  0  0  0  0  0  0  0
   -7.4404   -2.9434    1.9580 C   0  0  0  0  0  0  0  0  0  0  0  0
   -7.4328   -1.6706    2.5180 C   0  0  0  0  0  0  0  0  0  0  0  0
   -6.4439   -0.7511    2.1548 C   0  0  0  0  0  0  0  0  0  0  0  0
   -3.3912    0.7548    2.3507 C   0  0  0  0  0  0  0  0  0  0  0  0
   -2.8663   -0.1851    3.2629 C   0  0  0  0  0  0  0  0  0  0  0  0
   -2.3173    0.2129    4.4856 C   0  0  0  0  0  0  0  0  0  0  0  0
   -2.2912    1.5586    4.8342 C   0  0  0  0  0  0  0  0  0  0  0  0
   -2.8140    2.5059    3.9607 C   0  0  0  0  0  0  0  0  0  0  0  0
   -3.3606    2.1092    2.7356 C   0  0  0  0  0  0  0  0  0  0  0  0
   -4.9336    1.6427   -0.1505 C   0  0  0  0  0  0  0  0  0  0  0  0
   -6.3263    1.7723   -0.3036 C   0  0  0  0  0  0  0  0  0  0  0  0
   -6.8819    2.8645   -0.9781 C   0  0  0  0  0  0  0  0  0  0  0  0
   -6.0592    3.8460   -1.5221 C   0  0  0  0  0  0  0  0  0  0  0  0
   -4.6787    3.7364   -1.3963 C   0  0  0  0  0  0  0  0  0  0  0  0
   -4.1213    2.6465   -0.7220 C   0  0  0  0  0  0  0  0  0  0  0  0
   -3.4574   -0.9279   -1.7533 C   0  0  0  0  0  0  0  0  0  0  0  0
   -2.6625   -1.4820   -2.7612 C   0  0  0  0  0  0  0  0  0  0  0  0
   -1.2786   -1.6837   -2.5415 C   0  0  0  0  0  0  0  0  0  0  0  0
   -0.5384   -2.1792   -3.6481 C   0  0  0  0  0  0  0  0  0  0  0  0
   -1.1335   -2.5147   -4.8676 C   0  0  0  0  0  0  0  0  0  0  0  0
   -2.4972   -2.3455   -5.0359 C   0  0  0  0  0  0  0  0  0  0  0  0
   -3.2541   -1.8245   -3.9907 C   0  0  0  0  0  0  0  0  0  0  0  0
   -0.0526    2.9616    0.8313 H   0  0  0  0  0  0  0  0  0  0  0  0
    7.1169    0.2566    0.6813 H   0  0  0  0  0  0  0  0  0  0  0  0
    8.2540   -0.4944    2.7073 H   0  0  0  0  0  0  0  0  0  0  0  0
    6.9607   -1.1335    4.7238 H   0  0  0  0  0  0  0  0  0  0  0  0
    4.4834   -1.0127    4.6895 H   0  0  0  0  0  0  0  0  0  0  0  0
    3.3005   -0.2637    2.6828 H   0  0  0  0  0  0  0  0  0  0  0  0
    3.8364    2.4631    2.4014 H   0  0  0  0  0  0  0  0  0  0  0  0
    2.7754    4.6352    2.7236 H   0  0  0  0  0  0  0  0  0  0  0  0
    1.6566    5.7905    0.8331 H   0  0  0  0  0  0  0  0  0  0  0  0
    1.6434    4.7442   -1.4129 H   0  0  0  0  0  0  0  0  0  0  0  0
    2.7605    2.5981   -1.7974 H   0  0  0  0  0  0  0  0  0  0  0  0
    6.3538    2.6260   -0.5540 H   0  0  0  0  0  0  0  0  0  0  0  0
    7.8968    3.0048   -2.4190 H   0  0  0  0  0  0  0  0  0  0  0  0
    7.8184    1.5585   -4.4325 H   0  0  0  0  0  0  0  0  0  0  0  0
    6.1575   -0.2776   -4.5673 H   0  0  0  0  0  0  0  0  0  0  0  0
    4.5991   -0.6867   -2.7397 H   0  0  0  0  0  0  0  0  0  0  0  0
    4.5496   -2.2102   -0.4288 H   0  0  0  0  0  0  0  0  0  0  0  0
   -0.5774   -4.0741   -1.3492 H   0  0  0  0  0  0  0  0  0  0  0  0
    0.4628   -6.2700   -1.5194 H   0  0  0  0  0  0  0  0  0  0  0  0
    2.9204   -6.5184   -1.2650 H   0  0  0  0  0  0  0  0  0  0  0  0
    4.3111   -4.5450   -0.8175 H   0  0  0  0  0  0  0  0  0  0  0  0
   -4.7084   -2.7161   -0.0283 H   0  0  0  0  0  0  0  0  0  0  0  0
   -6.4472   -4.2978    0.6143 H   0  0  0  0  0  0  0  0  0  0  0  0
   -8.2080   -3.6594    2.2399 H   0  0  0  0  0  0  0  0  0  0  0  0
   -8.1946   -1.3915    3.2420 H   0  0  0  0  0  0  0  0  0  0  0  0
   -6.4641    0.2328    2.6253 H   0  0  0  0  0  0  0  0  0  0  0  0
   -2.8665   -1.2498    3.0269 H   0  0  0  0  0  0  0  0  0  0  0  0
   -1.9077   -0.5320    5.1629 H   0  0  0  0  0  0  0  0  0  0  0  0
   -1.8644    1.8671    5.7845 H   0  0  0  0  0  0  0  0  0  0  0  0
   -2.7999    3.5584    4.2306 H   0  0  0  0  0  0  0  0  0  0  0  0
   -3.7690    2.8880    2.0939 H   0  0  0  0  0  0  0  0  0  0  0  0
   -7.0119    1.0250    0.0908 H   0  0  0  0  0  0  0  0  0  0  0  0
   -7.9614    2.9434   -1.0811 H   0  0  0  0  0  0  0  0  0  0  0  0
   -6.4939    4.6917   -2.0478 H   0  0  0  0  0  0  0  0  0  0  0  0
   -4.0312    4.4962   -1.8259 H   0  0  0  0  0  0  0  0  0  0  0  0
   -3.0344    2.5929   -0.6480 H   0  0  0  0  0  0  0  0  0  0  0  0
   -4.5223   -0.7899   -1.9581 H   0  0  0  0  0  0  0  0  0  0  0  0
    0.5407   -2.3023   -3.5778 H   0  0  0  0  0  0  0  0  0  0  0  0
   -0.5235   -2.8996   -5.6800 H   0  0  0  0  0  0  0  0  0  0  0  0
   -2.9704   -2.6003   -5.9802 H   0  0  0  0  0  0  0  0  0  0  0  0
   -4.3213   -1.6753   -4.1491 H   0  0  0  0  0  0  0  0  0  0  0  0
  2  1  2  0  0  0  0
  3 64  1  0  0  0  0
  3  2  1  0  0  0  0
  4  2  1  0  0  0  0
  5  6  2  0  0  0  0
  5  4  1  0  0  0  0
  6  7  1  0  0  0  0
  7 14  1  0  0  0  0
  7  8  1  0  0  0  0
  8  9  2  0  0  0  0
  8 13  1  0  0  0  0
  9 10  1  0  0  0  0
 10 66  1  0  0  0  0
 10 11  2  0  0  0  0
 11 67  1  0  0  0  0
 12 11  1  0  0  0  0
 12 68  1  0  0  0  0
 13 69  1  0  0  0  0
 13 12  2  0  0  0  0
 14 15  2  0  0  0  0
 15 16  1  0  0  0  0
 15 70  1  0  0  0  0
 16 71  1  0  0  0  0
 17 72  1  0  0  0  0
 17 16  2  0  0  0  0
 18 17  1  0  0  0  0
 19 18  2  0  0  0  0
 19 14  1  0  0  0  0
 20 21  1  0  0  0  0
 20  7  1  0  0  0  0
 21 75  1  0  0  0  0
 22 76  1  0  0  0  0
 22 21  2  0  0  0  0
 23 22  1  0  0  0  0
 24 23  2  0  0  0  0
 24 25  1  0  0  0  0
 25 20  2  0  0  0  0
 26 80  1  0  0  0  0
 26  6  1  0  0  0  0
 27 26  2  0  0  0  0
 28 33  2  0  0  0  0
 28 27  1  0  0  0  0
 29 28  1  0  0  0  0
 30 29  2  0  0  0  0
 30 31  1  0  0  0  0
 31 32  2  0  0  0  0
 32 27  1  0  0  0  0
 32 84  1  0  0  0  0
 33  5  1  0  0  0  0
 34 33  1  0  0  0  0
 34 35  2  0  0  0  0
 35 36  1  0  0  0  0
 36  2  1  0  0  0  0
 37 35  1  0  0  0  0
 37 38  1  0  0  0  0
 38 39  1  0  0  0  0
 38 45  1  0  0  0  0
 39 44  2  0  0  0  0
 40 41  2  0  0  0  0
 40 39  1  0  0  0  0
 41 42  1  0  0  0  0
 42 87  1  0  0  0  0
 42 43  2  0  0  0  0
 43 88  1  0  0  0  0
 44 43  1  0  0  0  0
 44 89  1  0  0  0  0
 45 50  2  0  0  0  0
 45 46  1  0  0  0  0
 46 47  2  0  0  0  0
 47 48  1  0  0  0  0
 47 91  1  0  0  0  0
 48 92  1  0  0  0  0
 49 93  1  0  0  0  0
 49 48  2  0  0  0  0
 50 49  1  0  0  0  0
 51 38  1  0  0  0  0
 52 51  1  0  0  0  0
 52 95  1  0  0  0  0
 53 52  2  0  0  0  0
 54 55  2  0  0  0  0
 54 53  1  0  0  0  0
 55 56  1  0  0  0  0
 56 99  1  0  0  0  0
 56 51  2  0  0  0  0
 57 37  2  0  0  0  0
 58 59  1  0  0  0  0
 58 57  1  0  0  0  0
 59 34  1  0  0  0  0
 60101  1  0  0  0  0
 60 59  2  0  0  0  0
 61 60  1  0  0  0  0
 62 61  2  0  0  0  0
 62 63  1  0  0  0  0
 63 58  2  0  0  0  0
 65  9  1  0  0  0  0
 73 18  1  0  0  0  0
 74 19  1  0  0  0  0
 77 23  1  0  0  0  0
 78 24  1  0  0  0  0
 79 25  1  0  0  0  0
 81 29  1  0  0  0  0
 82 30  1  0  0  0  0
 83 31  1  0  0  0  0
 85 40  1  0  0  0  0
 86 41  1  0  0  0  0
 90 46  1  0  0  0  0
 94 50  1  0  0  0  0
 96 53  1  0  0  0  0
 97 54  1  0  0  0  0
 98 55  1  0  0  0  0
100 57  1  0  0  0  0
102 61  1  0  0  0  0
103 62  1  0  0  0  0
104 63  1  0  0  0  0
M  END
$$$$
