O=P1(O)OC2=C(C3=CC=C(C4=CC(C(F)(F)F)=CC(C(F)(F)F)=C4)C=C3)C=C5C(C=CC=C5)=C2C6=C(O1)C(C7=CC=C(C8=CC(C(F)(F)F)=CC(C(F)(F)F)=C8)C=C7)=CC9=C6C=CC=C9
 OpenBabel09032010373D

 90 98  0  0  0  0  0  0  0  0999 V2000
    1.3863   -0.3755    0.4363 O   0  0  0  0  0  0  0  0  0  0  0  0
    0.7987    0.3914   -0.7107 P   0  0  0  0  0  0  0  0  0  0  0  0
    0.8968   -0.4418   -2.0835 O   0  0  0  0  0  0  0  0  0  0  0  0
    1.5419    1.7793   -1.0574 O   0  0  0  0  0  0  0  0  0  0  0  0
    0.9474    2.7089   -1.9006 C   0  0  0  0  0  0  0  0  0  0  0  0
    1.6454    3.0264   -3.0949 C   0  0  0  0  0  0  0  0  0  0  0  0
    2.8927    2.3314   -3.4298 C   0  0  0  0  0  0  0  0  0  0  0  0
    2.8434    1.1656   -4.2044 C   0  0  0  0  0  0  0  0  0  0  0  0
    3.8357    0.2007   -4.0579 C   0  0  0  0  0  0  0  0  0  0  0  0
    4.8412    0.3988   -3.0971 C   0  0  0  0  0  0  0  0  0  0  0  0
    5.0861   -0.7279   -2.1824 C   0  0  0  0  0  0  0  0  0  0  0  0
    4.3181   -0.6941   -1.0025 C   0  0  0  0  0  0  0  0  0  0  0  0
    4.1386   -1.8034   -0.1862 C   0  0  0  0  0  0  0  0  0  0  0  0
    3.0884   -1.7096    0.8997 C   0  0  0  0  0  0  0  0  0  0  0  0
    3.2327   -2.6737    1.8526 F   0  0  0  0  0  0  0  0  0  0  0  0
    3.1113   -0.5216    1.5647 F   0  0  0  0  0  0  0  0  0  0  0  0
    1.8249   -1.8484    0.4143 F   0  0  0  0  0  0  0  0  0  0  0  0
    4.8627   -2.9589   -0.4908 C   0  0  0  0  0  0  0  0  0  0  0  0
    5.7241   -2.9993   -1.6133 C   0  0  0  0  0  0  0  0  0  0  0  0
    6.4889   -4.2626   -1.9432 C   0  0  0  0  0  0  0  0  0  0  0  0
    7.6886   -4.0197   -2.5386 F   0  0  0  0  0  0  0  0  0  0  0  0
    5.7993   -5.0665   -2.7978 F   0  0  0  0  0  0  0  0  0  0  0  0
    6.7606   -5.0226   -0.8472 F   0  0  0  0  0  0  0  0  0  0  0  0
    5.8007   -1.8846   -2.4769 C   0  0  0  0  0  0  0  0  0  0  0  0
    5.0767    1.6972   -2.6179 C   0  0  0  0  0  0  0  0  0  0  0  0
    4.0808    2.6600   -2.7639 C   0  0  0  0  0  0  0  0  0  0  0  0
    1.1087    3.9794   -3.9530 C   0  0  0  0  0  0  0  0  0  0  0  0
   -0.1110    4.5934   -3.6636 C   0  0  0  0  0  0  0  0  0  0  0  0
   -0.8077    4.2832   -2.4611 C   0  0  0  0  0  0  0  0  0  0  0  0
   -2.0824    4.8869   -2.3088 C   0  0  0  0  0  0  0  0  0  0  0  0
   -2.6083    5.7856   -3.2410 C   0  0  0  0  0  0  0  0  0  0  0  0
   -1.8833    6.1030   -4.3776 C   0  0  0  0  0  0  0  0  0  0  0  0
   -0.6452    5.5047   -4.5893 C   0  0  0  0  0  0  0  0  0  0  0  0
   -0.2440    3.3624   -1.5007 C   0  0  0  0  0  0  0  0  0  0  0  0
   -0.8242    3.1128   -0.1936 C   0  0  0  0  0  0  0  0  0  0  0  0
   -1.1206    1.7886    0.2176 C   0  0  0  0  0  0  0  0  0  0  0  0
   -0.7702    0.7397   -0.6015 O   0  0  0  0  0  0  0  0  0  0  0  0
   -1.8204    1.4739    1.3946 C   0  0  0  0  0  0  0  0  0  0  0  0
   -2.1862    0.0991    1.7571 C   0  0  0  0  0  0  0  0  0  0  0  0
   -1.2990   -0.7226    2.4627 C   0  0  0  0  0  0  0  0  0  0  0  0
   -1.6689   -2.0186    2.8407 C   0  0  0  0  0  0  0  0  0  0  0  0
   -2.9379   -2.5302    2.5289 C   0  0  0  0  0  0  0  0  0  0  0  0
   -3.3347   -3.8845    2.9469 C   0  0  0  0  0  0  0  0  0  0  0  0
   -4.5069   -4.0937    3.6916 C   0  0  0  0  0  0  0  0  0  0  0  0
   -4.9029   -5.3794    4.0984 C   0  0  0  0  0  0  0  0  0  0  0  0
   -6.1591   -5.5585    4.9167 C   0  0  0  0  0  0  0  0  0  0  0  0
   -5.9520   -5.3145    6.2392 F   0  0  0  0  0  0  0  0  0  0  0  0
   -7.1637   -4.7229    4.5326 F   0  0  0  0  0  0  0  0  0  0  0  0
   -6.6727   -6.8174    4.8418 F   0  0  0  0  0  0  0  0  0  0  0  0
   -4.0950   -6.4759    3.7625 C   0  0  0  0  0  0  0  0  0  0  0  0
   -2.9138   -6.2996    3.0256 C   0  0  0  0  0  0  0  0  0  0  0  0
   -2.0634   -7.4869    2.6415 C   0  0  0  0  0  0  0  0  0  0  0  0
   -2.0257   -8.4435    3.6111 F   0  0  0  0  0  0  0  0  0  0  0  0
   -2.5204   -8.1087    1.5207 F   0  0  0  0  0  0  0  0  0  0  0  0
   -0.7652   -7.1612    2.3903 F   0  0  0  0  0  0  0  0  0  0  0  0
   -2.5522   -5.0035    2.6194 C   0  0  0  0  0  0  0  0  0  0  0  0
   -3.8200   -1.7058    1.8137 C   0  0  0  0  0  0  0  0  0  0  0  0
   -3.4501   -0.4109    1.4329 C   0  0  0  0  0  0  0  0  0  0  0  0
   -2.1913    2.5228    2.2373 C   0  0  0  0  0  0  0  0  0  0  0  0
   -1.8539    3.8466    1.9445 C   0  0  0  0  0  0  0  0  0  0  0  0
   -1.1551    4.1566    0.7470 C   0  0  0  0  0  0  0  0  0  0  0  0
   -0.7758    5.5138    0.5794 C   0  0  0  0  0  0  0  0  0  0  0  0
   -1.1198    6.5113    1.4961 C   0  0  0  0  0  0  0  0  0  0  0  0
   -1.8434    6.1844    2.6311 C   0  0  0  0  0  0  0  0  0  0  0  0
   -2.2014    4.8585    2.8561 C   0  0  0  0  0  0  0  0  0  0  0  0
    1.7104   -0.9815   -2.0718 H   0  0  0  0  0  0  0  0  0  0  0  0
    1.9431    0.9162   -4.7642 H   0  0  0  0  0  0  0  0  0  0  0  0
    3.6601   -0.7864   -4.4822 H   0  0  0  0  0  0  0  0  0  0  0  0
    3.7607    0.2124   -0.7588 H   0  0  0  0  0  0  0  0  0  0  0  0
    4.7467   -3.8423    0.1388 H   0  0  0  0  0  0  0  0  0  0  0  0
    6.3910   -1.9413   -3.3907 H   0  0  0  0  0  0  0  0  0  0  0  0
    5.8791    1.8837   -1.9054 H   0  0  0  0  0  0  0  0  0  0  0  0
    4.1534    3.5860   -2.1963 H   0  0  0  0  0  0  0  0  0  0  0  0
    1.6380    4.2210   -4.8736 H   0  0  0  0  0  0  0  0  0  0  0  0
   -2.7067    4.6499   -1.4489 H   0  0  0  0  0  0  0  0  0  0  0  0
   -3.5873    6.2274   -3.0744 H   0  0  0  0  0  0  0  0  0  0  0  0
   -2.2854    6.7988   -5.1083 H   0  0  0  0  0  0  0  0  0  0  0  0
   -0.1024    5.7474   -5.5012 H   0  0  0  0  0  0  0  0  0  0  0  0
   -0.3067   -0.3588    2.7255 H   0  0  0  0  0  0  0  0  0  0  0  0
   -0.9538   -2.6210    3.3977 H   0  0  0  0  0  0  0  0  0  0  0  0
   -5.1234   -3.2380    3.9717 H   0  0  0  0  0  0  0  0  0  0  0  0
   -4.3874   -7.4792    4.0779 H   0  0  0  0  0  0  0  0  0  0  0  0
   -1.6445   -4.8649    2.0296 H   0  0  0  0  0  0  0  0  0  0  0  0
   -4.8080   -2.0686    1.5369 H   0  0  0  0  0  0  0  0  0  0  0  0
   -4.1584    0.2013    0.8783 H   0  0  0  0  0  0  0  0  0  0  0  0
   -2.7325    2.2913    3.1546 H   0  0  0  0  0  0  0  0  0  0  0  0
   -0.1827    5.8194   -0.2809 H   0  0  0  0  0  0  0  0  0  0  0  0
   -0.8137    7.5389    1.3187 H   0  0  0  0  0  0  0  0  0  0  0  0
   -2.1143    6.9534    3.3493 H   0  0  0  0  0  0  0  0  0  0  0  0
   -2.7480    4.6166    3.7660 H   0  0  0  0  0  0  0  0  0  0  0  0
  2 37  1  0  0  0  0
  2  1  2  0  0  0  0
  3 66  1  0  0  0  0
  3  2  1  0  0  0  0
  4  2  1  0  0  0  0
  5 34  1  0  0  0  0
  5  4  1  0  0  0  0
  6  5  2  0  0  0  0
  7  6  1  0  0  0  0
  7 26  2  0  0  0  0
  8  9  2  0  0  0  0
  8  7  1  0  0  0  0
  9 10  1  0  0  0  0
 10 25  2  0  0  0  0
 10 11  1  0  0  0  0
 11 12  1  0  0  0  0
 12 69  1  0  0  0  0
 12 13  2  0  0  0  0
 13 14  1  0  0  0  0
 14 16  1  0  0  0  0
 14 15  1  0  0  0  0
 17 14  1  0  0  0  0
 18 13  1  0  0  0  0
 18 70  1  0  0  0  0
 19 18  2  0  0  0  0
 20 19  1  0  0  0  0
 20 23  1  0  0  0  0
 21 20  1  0  0  0  0
 22 20  1  0  0  0  0
 24 11  2  0  0  0  0
 24 19  1  0  0  0  0
 25 72  1  0  0  0  0
 26 25  1  0  0  0  0
 26 73  1  0  0  0  0
 27 28  2  0  0  0  0
 27  6  1  0  0  0  0
 28 29  1  0  0  0  0
 29 30  1  0  0  0  0
 29 34  2  0  0  0  0
 30 75  1  0  0  0  0
 31 76  1  0  0  0  0
 31 30  2  0  0  0  0
 32 31  1  0  0  0  0
 33 32  2  0  0  0  0
 33 28  1  0  0  0  0
 34 35  1  0  0  0  0
 35 36  2  0  0  0  0
 35 61  1  0  0  0  0
 36 38  1  0  0  0  0
 37 36  1  0  0  0  0
 38 39  1  0  0  0  0
 38 59  2  0  0  0  0
 39 40  1  0  0  0  0
 40 79  1  0  0  0  0
 40 41  2  0  0  0  0
 41 80  1  0  0  0  0
 42 41  1  0  0  0  0
 42 43  1  0  0  0  0
 43 44  1  0  0  0  0
 44 81  1  0  0  0  0
 44 45  2  0  0  0  0
 45 46  1  0  0  0  0
 46 47  1  0  0  0  0
 48 46  1  0  0  0  0
 49 46  1  0  0  0  0
 50 82  1  0  0  0  0
 50 45  1  0  0  0  0
 51 50  2  0  0  0  0
 52 51  1  0  0  0  0
 52 53  1  0  0  0  0
 54 52  1  0  0  0  0
 55 52  1  0  0  0  0
 56 43  2  0  0  0  0
 56 51  1  0  0  0  0
 57 42  2  0  0  0  0
 58 39  2  0  0  0  0
 58 57  1  0  0  0  0
 59 86  1  0  0  0  0
 60 59  1  0  0  0  0
 60 65  2  0  0  0  0
 61 60  1  0  0  0  0
 62 61  2  0  0  0  0
 62 63  1  0  0  0  0
 63 64  2  0  0  0  0
 64 65  1  0  0  0  0
 64 89  1  0  0  0  0
 65 90  1  0  0  0  0
 67  8  1  0  0  0  0
 68  9  1  0  0  0  0
 71 24  1  0  0  0  0
 74 27  1  0  0  0  0
 77 32  1  0  0  0  0
 78 33  1  0  0  0  0
 83 56  1  0  0  0  0
 84 57  1  0  0  0  0
 85 58  1  0  0  0  0
 87 62  1  0  0  0  0
 88 63  1  0  0  0  0
M  END
$$$$
