O=P1(O)OC2=C(C3=C(C(C)C)C=C(C4=CC=C(C(C)(C)C)C=C4)C=C3C(C)C)C=C5C(C=CC=C5)=[C@]2[C@]6=C(O1)C(C7=C(C(C)C)C=C(C8=CC=C(C(C)(C)C)C=C8)C=C7C(C)C)=CC9=C6C=CC=C9
 OpenBabel09032010373D

138146  0  0  0  0  0  0  0  0999 V2000
   -0.4358    0.9047   -1.0753 O   0  0  0  0  0  0  0  0  0  0  0  0
   -0.1143   -0.3539   -0.3346 P   0  0  0  0  0  0  0  0  0  0  0  0
    0.2003   -0.0305    1.2073 O   0  0  0  0  0  0  0  0  0  0  0  0
    1.1791   -1.1381   -0.8714 O   0  0  0  0  0  0  0  0  0  0  0  0
    1.4330   -2.4305   -0.4755 C   0  0  0  0  0  0  0  0  0  0  0  0
    2.6741   -2.6483    0.1558 C   0  0  0  0  0  0  0  0  0  0  0  0
    3.6471   -1.5553    0.3830 C   0  0  0  0  0  0  0  0  0  0  0  0
    4.4723   -1.1042   -0.6873 C   0  0  0  0  0  0  0  0  0  0  0  0
    4.4167   -1.7226   -2.0869 C   0  0  0  0  0  0  0  0  0  0  0  0
    3.9827   -0.6990   -3.1414 C   0  0  0  0  0  0  0  0  0  0  0  0
    5.7542   -2.3666   -2.4694 C   0  0  0  0  0  0  0  0  0  0  0  0
    5.3844   -0.0538   -0.4577 C   0  0  0  0  0  0  0  0  0  0  0  0
    5.5260    0.5502    0.7948 C   0  0  0  0  0  0  0  0  0  0  0  0
    6.4774    1.6516    0.9990 C   0  0  0  0  0  0  0  0  0  0  0  0
    7.4801    1.5754    1.9726 C   0  0  0  0  0  0  0  0  0  0  0  0
    8.3858    2.6275    2.1673 C   0  0  0  0  0  0  0  0  0  0  0  0
    8.3227    3.7984    1.3966 C   0  0  0  0  0  0  0  0  0  0  0  0
    9.2987    4.9727    1.5836 C   0  0  0  0  0  0  0  0  0  0  0  0
    8.5119    6.2461    1.9622 C   0  0  0  0  0  0  0  0  0  0  0  0
   10.0679    5.2232    0.2685 C   0  0  0  0  0  0  0  0  0  0  0  0
   10.3512    4.7397    2.6910 C   0  0  0  0  0  0  0  0  0  0  0  0
    7.3109    3.8677    0.4213 C   0  0  0  0  0  0  0  0  0  0  0  0
    6.4076    2.8163    0.2260 C   0  0  0  0  0  0  0  0  0  0  0  0
    4.7309    0.0778    1.8442 C   0  0  0  0  0  0  0  0  0  0  0  0
    3.7812   -0.9505    1.6668 C   0  0  0  0  0  0  0  0  0  0  0  0
    2.9464   -1.3957    2.8709 C   0  0  0  0  0  0  0  0  0  0  0  0
    3.7578   -2.3367    3.7676 C   0  0  0  0  0  0  0  0  0  0  0  0
    2.4035   -0.2279    3.7086 C   0  0  0  0  0  0  0  0  0  0  0  0
    3.0078   -3.9533    0.5217 C   0  0  0  0  0  0  0  0  0  0  0  0
    2.1222   -5.0123    0.3210 C   0  0  0  0  0  0  0  0  0  0  0  0
    0.8796   -4.7881   -0.3292 C   0  0  0  0  0  0  0  0  0  0  0  0
    0.0085   -5.9054   -0.4079 C   0  0  0  0  0  0  0  0  0  0  0  0
    0.3636   -7.1736    0.0604 C   0  0  0  0  0  0  0  0  0  0  0  0
    1.6041   -7.3701    0.6441 C   0  0  0  0  0  0  0  0  0  0  0  0
    2.4750   -6.2933    0.7786 C   0  0  0  0  0  0  0  0  0  0  0  0
    0.5405   -3.4766   -0.8266 C   0  0  0  0  0  0  0  0  0  0  0  0
   -0.6203   -3.2243   -1.6629 C   0  0  0  0  0  0  0  0  0  0  0  0
   -1.5534   -2.2248   -1.3064 C   0  0  0  0  0  0  0  0  0  0  0  0
   -1.2992   -1.4311   -0.2149 O   0  0  0  0  0  0  0  0  0  0  0  0
   -2.7994   -2.0502   -1.9384 C   0  0  0  0  0  0  0  0  0  0  0  0
   -3.7877   -1.0670   -1.4433 C   0  0  0  0  0  0  0  0  0  0  0  0
   -4.5818   -1.3754   -0.3011 C   0  0  0  0  0  0  0  0  0  0  0  0
   -4.5231   -2.7352    0.4000 C   0  0  0  0  0  0  0  0  0  0  0  0
   -5.8775   -3.4516    0.3469 C   0  0  0  0  0  0  0  0  0  0  0  0
   -4.0307   -2.6082    1.8455 C   0  0  0  0  0  0  0  0  0  0  0  0
   -5.4559   -0.3969    0.2119 C   0  0  0  0  0  0  0  0  0  0  0  0
   -5.5886    0.8639   -0.3762 C   0  0  0  0  0  0  0  0  0  0  0  0
   -6.4608    1.8848    0.2188 C   0  0  0  0  0  0  0  0  0  0  0  0
   -6.2687    2.3043    1.5405 C   0  0  0  0  0  0  0  0  0  0  0  0
   -7.0828    3.2883    2.1108 C   0  0  0  0  0  0  0  0  0  0  0  0
   -8.1255    3.8920    1.3843 C   0  0  0  0  0  0  0  0  0  0  0  0
   -9.0027    4.9711    2.0426 C   0  0  0  0  0  0  0  0  0  0  0  0
   -8.1215    6.1621    2.4772 C   0  0  0  0  0  0  0  0  0  0  0  0
   -9.7077    4.3815    3.2834 C   0  0  0  0  0  0  0  0  0  0  0  0
  -10.1042    5.5322    1.1151 C   0  0  0  0  0  0  0  0  0  0  0  0
   -8.3124    3.4646    0.0605 C   0  0  0  0  0  0  0  0  0  0  0  0
   -7.4945    2.4806   -0.5117 C   0  0  0  0  0  0  0  0  0  0  0  0
   -4.8455    1.1334   -1.5300 C   0  0  0  0  0  0  0  0  0  0  0  0
   -3.9347    0.2038   -2.0729 C   0  0  0  0  0  0  0  0  0  0  0  0
   -3.1489    0.5888   -3.3306 C   0  0  0  0  0  0  0  0  0  0  0  0
   -2.6522    2.0430   -3.3407 C   0  0  0  0  0  0  0  0  0  0  0  0
   -3.9946    0.3362   -4.5836 C   0  0  0  0  0  0  0  0  0  0  0  0
   -3.1043   -2.8718   -3.0228 C   0  0  0  0  0  0  0  0  0  0  0  0
   -2.1807   -3.7996   -3.5090 C   0  0  0  0  0  0  0  0  0  0  0  0
   -0.9300   -3.9727   -2.8560 C   0  0  0  0  0  0  0  0  0  0  0  0
   -0.0220   -4.8724   -3.4694 C   0  0  0  0  0  0  0  0  0  0  0  0
   -0.3467   -5.6026   -4.6155 C   0  0  0  0  0  0  0  0  0  0  0  0
   -1.5924   -5.4476   -5.2019 C   0  0  0  0  0  0  0  0  0  0  0  0
   -2.5012   -4.5473   -4.6541 C   0  0  0  0  0  0  0  0  0  0  0  0
   -0.2693    0.7849    1.4620 H   0  0  0  0  0  0  0  0  0  0  0  0
    3.6788   -2.5290   -2.1199 H   0  0  0  0  0  0  0  0  0  0  0  0
    3.8587   -1.1829   -4.1164 H   0  0  0  0  0  0  0  0  0  0  0  0
    3.0258   -0.2389   -2.8722 H   0  0  0  0  0  0  0  0  0  0  0  0
    4.7167    0.1046   -3.2637 H   0  0  0  0  0  0  0  0  0  0  0  0
    6.5580   -1.6287   -2.5617 H   0  0  0  0  0  0  0  0  0  0  0  0
    5.6692   -2.8832   -3.4318 H   0  0  0  0  0  0  0  0  0  0  0  0
    6.0605   -3.1043   -1.7194 H   0  0  0  0  0  0  0  0  0  0  0  0
    6.0136    0.2959   -1.2750 H   0  0  0  0  0  0  0  0  0  0  0  0
    7.5734    0.6825    2.5878 H   0  0  0  0  0  0  0  0  0  0  0  0
    9.1390    2.4962    2.9390 H   0  0  0  0  0  0  0  0  0  0  0  0
    7.9291    6.0920    2.8781 H   0  0  0  0  0  0  0  0  0  0  0  0
    9.1879    7.0917    2.1353 H   0  0  0  0  0  0  0  0  0  0  0  0
    7.8131    6.5509    1.1754 H   0  0  0  0  0  0  0  0  0  0  0  0
    9.4019    5.5073   -0.5537 H   0  0  0  0  0  0  0  0  0  0  0  0
   10.7965    6.0340    0.3850 H   0  0  0  0  0  0  0  0  0  0  0  0
   10.6144    4.3261   -0.0458 H   0  0  0  0  0  0  0  0  0  0  0  0
   10.9777    3.8665    2.4750 H   0  0  0  0  0  0  0  0  0  0  0  0
    9.8808    4.5892    3.6697 H   0  0  0  0  0  0  0  0  0  0  0  0
   11.0224    5.6019    2.7858 H   0  0  0  0  0  0  0  0  0  0  0  0
    7.2058    4.7499   -0.2064 H   0  0  0  0  0  0  0  0  0  0  0  0
    5.6354    2.9221   -0.5337 H   0  0  0  0  0  0  0  0  0  0  0  0
    4.8480    0.5391    2.8228 H   0  0  0  0  0  0  0  0  0  0  0  0
    2.0626   -1.9393    2.5204 H   0  0  0  0  0  0  0  0  0  0  0  0
    4.6299   -1.8309    4.1975 H   0  0  0  0  0  0  0  0  0  0  0  0
    4.1242   -3.2055    3.2126 H   0  0  0  0  0  0  0  0  0  0  0  0
    3.1431   -2.7056    4.5958 H   0  0  0  0  0  0  0  0  0  0  0  0
    3.1896    0.2665    4.2892 H   0  0  0  0  0  0  0  0  0  0  0  0
    1.6570   -0.5909    4.4239 H   0  0  0  0  0  0  0  0  0  0  0  0
    1.9268    0.5300    3.0798 H   0  0  0  0  0  0  0  0  0  0  0  0
    3.9745   -4.1341    0.9899 H   0  0  0  0  0  0  0  0  0  0  0  0
   -0.9881   -5.7998   -0.8334 H   0  0  0  0  0  0  0  0  0  0  0  0
   -0.3361   -8.0002   -0.0312 H   0  0  0  0  0  0  0  0  0  0  0  0
    1.8884   -8.3530    1.0096 H   0  0  0  0  0  0  0  0  0  0  0  0
    3.4359   -6.4611    1.2619 H   0  0  0  0  0  0  0  0  0  0  0  0
   -3.8175   -3.3976   -0.1097 H   0  0  0  0  0  0  0  0  0  0  0  0
   -6.2265   -3.5499   -0.6871 H   0  0  0  0  0  0  0  0  0  0  0  0
   -5.7947   -4.4590    0.7694 H   0  0  0  0  0  0  0  0  0  0  0  0
   -6.6499   -2.9198    0.9123 H   0  0  0  0  0  0  0  0  0  0  0  0
   -4.7311   -2.0462    2.4724 H   0  0  0  0  0  0  0  0  0  0  0  0
   -3.9074   -3.5991    2.2962 H   0  0  0  0  0  0  0  0  0  0  0  0
   -3.0621   -2.0988    1.8884 H   0  0  0  0  0  0  0  0  0  0  0  0
   -6.0530   -0.6221    1.0944 H   0  0  0  0  0  0  0  0  0  0  0  0
   -5.4669    1.8752    2.1381 H   0  0  0  0  0  0  0  0  0  0  0  0
   -6.8837    3.5785    3.1400 H   0  0  0  0  0  0  0  0  0  0  0  0
   -7.3760    5.8745    3.2266 H   0  0  0  0  0  0  0  0  0  0  0  0
   -8.7276    6.9618    2.9190 H   0  0  0  0  0  0  0  0  0  0  0  0
   -7.5818    6.5862    1.6221 H   0  0  0  0  0  0  0  0  0  0  0  0
  -10.3674    5.1212    3.7519 H   0  0  0  0  0  0  0  0  0  0  0  0
  -10.3193    3.5123    3.0137 H   0  0  0  0  0  0  0  0  0  0  0  0
   -8.9954    4.0572    4.0499 H   0  0  0  0  0  0  0  0  0  0  0  0
  -10.7963    4.7468    0.7897 H   0  0  0  0  0  0  0  0  0  0  0  0
  -10.7016    6.2955    1.6281 H   0  0  0  0  0  0  0  0  0  0  0  0
   -9.6781    6.0038    0.2219 H   0  0  0  0  0  0  0  0  0  0  0  0
   -9.0965    3.8814   -0.5649 H   0  0  0  0  0  0  0  0  0  0  0  0
   -7.6799    2.1771   -1.5402 H   0  0  0  0  0  0  0  0  0  0  0  0
   -4.9633    2.1089   -1.9977 H   0  0  0  0  0  0  0  0  0  0  0  0
   -2.2460   -0.0281   -3.3952 H   0  0  0  0  0  0  0  0  0  0  0  0
   -2.1612    2.3088   -2.4004 H   0  0  0  0  0  0  0  0  0  0  0  0
   -1.9296    2.1895   -4.1514 H   0  0  0  0  0  0  0  0  0  0  0  0
   -3.4662    2.7572   -3.5056 H   0  0  0  0  0  0  0  0  0  0  0  0
   -4.3317   -0.7026   -4.6425 H   0  0  0  0  0  0  0  0  0  0  0  0
   -3.4165    0.5500   -5.4891 H   0  0  0  0  0  0  0  0  0  0  0  0
   -4.8883    0.9706   -4.5988 H   0  0  0  0  0  0  0  0  0  0  0  0
   -4.0745   -2.7651   -3.5054 H   0  0  0  0  0  0  0  0  0  0  0  0
    0.9783   -5.0107   -3.0623 H   0  0  0  0  0  0  0  0  0  0  0  0
    0.3806   -6.2858   -5.0460 H   0  0  0  0  0  0  0  0  0  0  0  0
   -1.8517   -6.0113   -6.0935 H   0  0  0  0  0  0  0  0  0  0  0  0
   -3.4656   -4.4214   -5.1431 H   0  0  0  0  0  0  0  0  0  0  0  0
  1  2  2  0  0  0  0
  2 39  1  0  0  0  0
  2  3  1  0  0  0  0
  3 70  1  0  0  0  0
  4  5  1  0  0  0  0
  4  2  1  0  0  0  0
  5  6  1  0  0  0  0
  6  7  1  0  0  0  0
  6 29  2  0  0  0  0
  7 25  2  0  0  0  0
  8 12  2  0  0  0  0
  8  7  1  0  0  0  0
  9  8  1  0  0  0  0
 10 73  1  0  0  0  0
 10  9  1  0  0  0  0
 11  9  1  0  0  0  0
 11 77  1  0  0  0  0
 12 13  1  0  0  0  0
 13 14  1  0  0  0  0
 13 24  2  0  0  0  0
 14 15  2  0  0  0  0
 15 16  1  0  0  0  0
 15 79  1  0  0  0  0
 16 80  1  0  0  0  0
 17 18  1  0  0  0  0
 17 16  2  0  0  0  0
 18 19  1  0  0  0  0
 18 21  1  0  0  0  0
 19 82  1  0  0  0  0
 19 81  1  0  0  0  0
 20 85  1  0  0  0  0
 20 18  1  0  0  0  0
 21 89  1  0  0  0  0
 21 88  1  0  0  0  0
 22 17  1  0  0  0  0
 23 22  2  0  0  0  0
 23 14  1  0  0  0  0
 24 92  1  0  0  0  0
 25 24  1  0  0  0  0
 25 26  1  0  0  0  0
 26 28  1  0  0  0  0
 26 27  1  0  0  0  0
 27 94  1  0  0  0  0
 27 96  1  0  0  0  0
 28 97  1  0  0  0  0
 28 98  1  0  0  0  0
 29100  1  0  0  0  0
 30 29  1  0  0  0  0
 30 35  2  0  0  0  0
 31 30  1  0  0  0  0
 32 31  2  0  0  0  0
 32 33  1  0  0  0  0
 33 34  2  0  0  0  0
 34 35  1  0  0  0  0
 34103  1  0  0  0  0
 35104  1  0  0  0  0
 36  5  2  0  0  0  0
 36 31  1  0  0  0  0
 37 38  1  0  0  0  0
 37 36  1  0  0  0  0
 38 39  1  0  0  0  0
 40 41  1  0  0  0  0
 40 38  2  0  0  0  0
 41 42  2  0  0  0  0
 42 46  1  0  0  0  0
 42 43  1  0  0  0  0
 43 45  1  0  0  0  0
 44 43  1  0  0  0  0
 44107  1  0  0  0  0
 44108  1  0  0  0  0
 45111  1  0  0  0  0
 45110  1  0  0  0  0
 45109  1  0  0  0  0
 46112  1  0  0  0  0
 47 46  2  0  0  0  0
 47 48  1  0  0  0  0
 48 49  2  0  0  0  0
 49 50  1  0  0  0  0
 49113  1  0  0  0  0
 50114  1  0  0  0  0
 51 52  1  0  0  0  0
 51 50  2  0  0  0  0
 52 53  1  0  0  0  0
 52 54  1  0  0  0  0
 53116  1  0  0  0  0
 53115  1  0  0  0  0
 54118  1  0  0  0  0
 54120  1  0  0  0  0
 55122  1  0  0  0  0
 55 52  1  0  0  0  0
 56 51  1  0  0  0  0
 57 56  2  0  0  0  0
 57 48  1  0  0  0  0
 58 47  1  0  0  0  0
 59 58  2  0  0  0  0
 59 41  1  0  0  0  0
 60 59  1  0  0  0  0
 61 60  1  0  0  0  0
 61128  1  0  0  0  0
 62 60  1  0  0  0  0
 63 40  1  0  0  0  0
 64 63  2  0  0  0  0
 64 65  1  0  0  0  0
 65 37  2  0  0  0  0
 66135  1  0  0  0  0
 66 65  1  0  0  0  0
 67 66  2  0  0  0  0
 68 69  2  0  0  0  0
 68 67  1  0  0  0  0
 69 64  1  0  0  0  0
 71  9  1  0  0  0  0
 72 10  1  0  0  0  0
 74 10  1  0  0  0  0
 75 11  1  0  0  0  0
 76 11  1  0  0  0  0
 78 12  1  0  0  0  0
 83 19  1  0  0  0  0
 84 20  1  0  0  0  0
 86 20  1  0  0  0  0
 87 21  1  0  0  0  0
 90 22  1  0  0  0  0
 91 23  1  0  0  0  0
 93 26  1  0  0  0  0
 95 27  1  0  0  0  0
 99 28  1  0  0  0  0
101 32  1  0  0  0  0
102 33  1  0  0  0  0
105 43  1  0  0  0  0
106 44  1  0  0  0  0
117 53  1  0  0  0  0
119 54  1  0  0  0  0
121 55  1  0  0  0  0
123 55  1  0  0  0  0
124 56  1  0  0  0  0
125 57  1  0  0  0  0
126 58  1  0  0  0  0
127 60  1  0  0  0  0
129 61  1  0  0  0  0
130 61  1  0  0  0  0
131 62  1  0  0  0  0
132 62  1  0  0  0  0
133 62  1  0  0  0  0
134 63  1  0  0  0  0
136 67  1  0  0  0  0
137 68  1  0  0  0  0
138 69  1  0  0  0  0
M  END
$$$$
