O=P1(O)OC2=C(C3=CC(C4=CC(C=CC=C5)=C5C=C4)=CC=C3)C=C6C(C=CC=C6)=C2C7=C(O1)C(C8=CC=CC(C9=CC=C(C=CC=C%10)C%10=C9)=C8)=CC%11=C7C=CC=C%11
 OpenBabel09032010373D

 90100  0  0  0  0  0  0  0  0999 V2000
    0.1613    0.9281   -0.5630 O   0  0  0  0  0  0  0  0  0  0  0  0
   -0.3246   -0.3624   -1.1435 P   0  0  0  0  0  0  0  0  0  0  0  0
   -1.2885   -0.1660   -2.4161 O   0  0  0  0  0  0  0  0  0  0  0  0
   -1.2150   -1.2420   -0.1337 O   0  0  0  0  0  0  0  0  0  0  0  0
   -1.5273   -2.5508   -0.4295 C   0  0  0  0  0  0  0  0  0  0  0  0
   -2.8931   -2.8474   -0.6364 C   0  0  0  0  0  0  0  0  0  0  0  0
   -3.9517   -1.8111   -0.6186 C   0  0  0  0  0  0  0  0  0  0  0  0
   -4.0097   -0.8435    0.3991 C   0  0  0  0  0  0  0  0  0  0  0  0
   -4.9399    0.2119    0.3870 C   0  0  0  0  0  0  0  0  0  0  0  0
   -4.8627    1.2745    1.4004 C   0  0  0  0  0  0  0  0  0  0  0  0
   -3.6525    1.9620    1.6047 C   0  0  0  0  0  0  0  0  0  0  0  0
   -3.5285    2.9688    2.5729 C   0  0  0  0  0  0  0  0  0  0  0  0
   -2.3103    3.6365    2.7703 C   0  0  0  0  0  0  0  0  0  0  0  0
   -2.1947    4.6302    3.7407 C   0  0  0  0  0  0  0  0  0  0  0  0
   -3.2961    4.9698    4.5209 C   0  0  0  0  0  0  0  0  0  0  0  0
   -4.5161    4.3165    4.3325 C   0  0  0  0  0  0  0  0  0  0  0  0
   -4.6479    3.3110    3.3610 C   0  0  0  0  0  0  0  0  0  0  0  0
   -5.8615    2.6363    3.1531 C   0  0  0  0  0  0  0  0  0  0  0  0
   -5.9665    1.6317    2.1844 C   0  0  0  0  0  0  0  0  0  0  0  0
   -5.8874    0.2453   -0.6423 C   0  0  0  0  0  0  0  0  0  0  0  0
   -5.8819   -0.7263   -1.6431 C   0  0  0  0  0  0  0  0  0  0  0  0
   -4.9159   -1.7355   -1.6370 C   0  0  0  0  0  0  0  0  0  0  0  0
   -3.2260   -4.1818   -0.8842 C   0  0  0  0  0  0  0  0  0  0  0  0
   -2.2522   -5.1803   -0.9794 C   0  0  0  0  0  0  0  0  0  0  0  0
   -0.8823   -4.8631   -0.7843 C   0  0  0  0  0  0  0  0  0  0  0  0
    0.0400   -5.9186   -1.0069 C   0  0  0  0  0  0  0  0  0  0  0  0
   -0.3629   -7.2174   -1.3294 C   0  0  0  0  0  0  0  0  0  0  0  0
   -1.7107   -7.5073   -1.4596 C   0  0  0  0  0  0  0  0  0  0  0  0
   -2.6479   -6.4924   -1.2921 C   0  0  0  0  0  0  0  0  0  0  0  0
   -0.4910   -3.5206   -0.4327 C   0  0  0  0  0  0  0  0  0  0  0  0
    0.8716   -3.1510   -0.0989 C   0  0  0  0  0  0  0  0  0  0  0  0
    1.5195   -2.1020   -0.7988 C   0  0  0  0  0  0  0  0  0  0  0  0
    0.8021   -1.3640   -1.7151 O   0  0  0  0  0  0  0  0  0  0  0  0
    2.8914   -1.8155   -0.6776 C   0  0  0  0  0  0  0  0  0  0  0  0
    3.5585   -0.7979   -1.5008 C   0  0  0  0  0  0  0  0  0  0  0  0
    4.3934   -1.1712   -2.5631 C   0  0  0  0  0  0  0  0  0  0  0  0
    5.0107   -0.2041   -3.3556 C   0  0  0  0  0  0  0  0  0  0  0  0
    4.7954    1.1508   -3.0994 C   0  0  0  0  0  0  0  0  0  0  0  0
    3.9689    1.5621   -2.0433 C   0  0  0  0  0  0  0  0  0  0  0  0
    3.7103    2.9878   -1.7838 C   0  0  0  0  0  0  0  0  0  0  0  0
    2.3975    3.4663   -1.6615 C   0  0  0  0  0  0  0  0  0  0  0  0
    2.1389    4.8143   -1.4079 C   0  0  0  0  0  0  0  0  0  0  0  0
    3.1925    5.7288   -1.2730 C   0  0  0  0  0  0  0  0  0  0  0  0
    2.9540    7.0892   -1.0197 C   0  0  0  0  0  0  0  0  0  0  0  0
    4.0150    7.9863   -0.8867 C   0  0  0  0  0  0  0  0  0  0  0  0
    5.3262    7.5347   -1.0041 C   0  0  0  0  0  0  0  0  0  0  0  0
    5.5793    6.1855   -1.2556 C   0  0  0  0  0  0  0  0  0  0  0  0
    4.5232    5.2703   -1.3940 C   0  0  0  0  0  0  0  0  0  0  0  0
    4.7629    3.9079   -1.6477 C   0  0  0  0  0  0  0  0  0  0  0  0
    3.3729    0.5696   -1.2458 C   0  0  0  0  0  0  0  0  0  0  0  0
    3.6353   -2.5497    0.2472 C   0  0  0  0  0  0  0  0  0  0  0  0
    3.0389   -3.5232    1.0524 C   0  0  0  0  0  0  0  0  0  0  0  0
    1.6585   -3.8235    0.9046 C   0  0  0  0  0  0  0  0  0  0  0  0
    1.1202   -4.7649    1.8186 C   0  0  0  0  0  0  0  0  0  0  0  0
    1.9029   -5.4159    2.7757 C   0  0  0  0  0  0  0  0  0  0  0  0
    3.2562   -5.1343    2.8659 C   0  0  0  0  0  0  0  0  0  0  0  0
    3.8184   -4.1889    2.0132 C   0  0  0  0  0  0  0  0  0  0  0  0
   -1.6504   -1.0066   -2.7438 H   0  0  0  0  0  0  0  0  0  0  0  0
   -3.2950   -0.8914    1.2213 H   0  0  0  0  0  0  0  0  0  0  0  0
   -2.7876    1.7115    0.9901 H   0  0  0  0  0  0  0  0  0  0  0  0
   -1.4394    3.3847    2.1682 H   0  0  0  0  0  0  0  0  0  0  0  0
   -1.2433    5.1350    3.8835 H   0  0  0  0  0  0  0  0  0  0  0  0
   -3.2059    5.7442    5.2770 H   0  0  0  0  0  0  0  0  0  0  0  0
   -5.3650    4.5975    4.9516 H   0  0  0  0  0  0  0  0  0  0  0  0
   -6.7358    2.8838    3.7504 H   0  0  0  0  0  0  0  0  0  0  0  0
   -6.9169    1.1179    2.0583 H   0  0  0  0  0  0  0  0  0  0  0  0
   -6.6183    1.0498   -0.6882 H   0  0  0  0  0  0  0  0  0  0  0  0
   -6.6151   -0.6804   -2.4443 H   0  0  0  0  0  0  0  0  0  0  0  0
   -4.9152   -2.4551   -2.4530 H   0  0  0  0  0  0  0  0  0  0  0  0
   -4.2742   -4.4478   -1.0216 H   0  0  0  0  0  0  0  0  0  0  0  0
    1.1120   -5.7397   -0.9424 H   0  0  0  0  0  0  0  0  0  0  0  0
    0.3829   -7.9936   -1.4807 H   0  0  0  0  0  0  0  0  0  0  0  0
   -2.0333   -8.5149   -1.7079 H   0  0  0  0  0  0  0  0  0  0  0  0
   -3.7011   -6.7354   -1.4231 H   0  0  0  0  0  0  0  0  0  0  0  0
    4.5569   -2.2233   -2.7861 H   0  0  0  0  0  0  0  0  0  0  0  0
    5.6482   -0.5048   -4.1826 H   0  0  0  0  0  0  0  0  0  0  0  0
    5.2641    1.8901   -3.7456 H   0  0  0  0  0  0  0  0  0  0  0  0
    1.5532    2.7872   -1.7672 H   0  0  0  0  0  0  0  0  0  0  0  0
    1.1063    5.1437   -1.3201 H   0  0  0  0  0  0  0  0  0  0  0  0
    1.9361    7.4602   -0.9240 H   0  0  0  0  0  0  0  0  0  0  0  0
    3.8165    9.0368   -0.6911 H   0  0  0  0  0  0  0  0  0  0  0  0
    6.1537    8.2315   -0.9001 H   0  0  0  0  0  0  0  0  0  0  0  0
    6.6103    5.8506   -1.3430 H   0  0  0  0  0  0  0  0  0  0  0  0
    5.7891    3.5535   -1.7259 H   0  0  0  0  0  0  0  0  0  0  0  0
    2.7459    0.8726   -0.4072 H   0  0  0  0  0  0  0  0  0  0  0  0
    4.6971   -2.3299    0.3582 H   0  0  0  0  0  0  0  0  0  0  0  0
    0.0571   -4.9997    1.8077 H   0  0  0  0  0  0  0  0  0  0  0  0
    1.4463   -6.1351    3.4507 H   0  0  0  0  0  0  0  0  0  0  0  0
    3.8717   -5.6340    3.6086 H   0  0  0  0  0  0  0  0  0  0  0  0
    4.8784   -3.9629    2.1160 H   0  0  0  0  0  0  0  0  0  0  0  0
  2  1  2  0  0  0  0
  2  4  1  0  0  0  0
  3  2  1  0  0  0  0
  5  4  1  0  0  0  0
  6  7  1  0  0  0  0
  6  5  1  0  0  0  0
  7  8  2  0  0  0  0
  8 59  1  0  0  0  0
  9  8  1  0  0  0  0
  9 10  1  0  0  0  0
 10 11  2  0  0  0  0
 10 19  1  0  0  0  0
 11 12  1  0  0  0  0
 12 13  2  0  0  0  0
 12 17  1  0  0  0  0
 13 14  1  0  0  0  0
 14 62  1  0  0  0  0
 14 15  2  0  0  0  0
 15 63  1  0  0  0  0
 16 15  1  0  0  0  0
 16 64  1  0  0  0  0
 17 16  2  0  0  0  0
 18 17  1  0  0  0  0
 18 65  1  0  0  0  0
 19 18  2  0  0  0  0
 20  9  2  0  0  0  0
 21 22  2  0  0  0  0
 21 20  1  0  0  0  0
 22  7  1  0  0  0  0
 23  6  2  0  0  0  0
 24 23  1  0  0  0  0
 24 25  1  0  0  0  0
 25 30  1  0  0  0  0
 26 71  1  0  0  0  0
 26 25  2  0  0  0  0
 27 26  1  0  0  0  0
 28 27  2  0  0  0  0
 28 29  1  0  0  0  0
 29 24  2  0  0  0  0
 30  5  2  0  0  0  0
 30 31  1  0  0  0  0
 31 53  2  0  0  0  0
 32 34  2  0  0  0  0
 32 31  1  0  0  0  0
 33  2  1  0  0  0  0
 33 32  1  0  0  0  0
 34 51  1  0  0  0  0
 35 50  1  0  0  0  0
 35 34  1  0  0  0  0
 36 35  2  0  0  0  0
 37 38  2  0  0  0  0
 37 36  1  0  0  0  0
 38 39  1  0  0  0  0
 39 40  1  0  0  0  0
 39 50  2  0  0  0  0
 40 41  2  0  0  0  0
 40 49  1  0  0  0  0
 41 42  1  0  0  0  0
 42 79  1  0  0  0  0
 42 43  2  0  0  0  0
 43 44  1  0  0  0  0
 44 80  1  0  0  0  0
 44 45  2  0  0  0  0
 45 81  1  0  0  0  0
 46 82  1  0  0  0  0
 46 45  1  0  0  0  0
 47 46  2  0  0  0  0
 48 43  1  0  0  0  0
 48 47  1  0  0  0  0
 49 48  2  0  0  0  0
 50 85  1  0  0  0  0
 51 86  1  0  0  0  0
 51 52  2  0  0  0  0
 52 57  1  0  0  0  0
 53 52  1  0  0  0  0
 53 54  1  0  0  0  0
 54 55  2  0  0  0  0
 55 56  1  0  0  0  0
 55 88  1  0  0  0  0
 56 89  1  0  0  0  0
 57 90  1  0  0  0  0
 57 56  2  0  0  0  0
 58  3  1  0  0  0  0
 60 11  1  0  0  0  0
 61 13  1  0  0  0  0
 66 19  1  0  0  0  0
 67 20  1  0  0  0  0
 68 21  1  0  0  0  0
 69 22  1  0  0  0  0
 70 23  1  0  0  0  0
 72 27  1  0  0  0  0
 73 28  1  0  0  0  0
 74 29  1  0  0  0  0
 75 36  1  0  0  0  0
 76 37  1  0  0  0  0
 77 38  1  0  0  0  0
 78 41  1  0  0  0  0
 83 47  1  0  0  0  0
 84 49  1  0  0  0  0
 87 54  1  0  0  0  0
M  END
$$$$
