O=P1(O)OC2=C(C3=CC=C(C(C)(C)C)C=C3)C=C4C(C=CC=C4)=C2C5=C(O1)C(C6=CC=C(C(C)(C)C)C=C6)=CC7=C5C=CC=C7
 OpenBabel09032010373D

 82 88  0  0  0  0  0  0  0  0999 V2000
   -0.6188    1.7270   -0.9975 O   0  0  0  0  0  0  0  0  0  0  0  0
    0.0063    0.6920   -0.1152 P   0  0  0  0  0  0  0  0  0  0  0  0
    0.8547    1.3640    1.0757 O   0  0  0  0  0  0  0  0  0  0  0  0
    1.0830   -0.2540   -0.8493 O   0  0  0  0  0  0  0  0  0  0  0  0
    1.5854   -1.3422   -0.1706 C   0  0  0  0  0  0  0  0  0  0  0  0
    2.9474   -1.2911    0.1783 C   0  0  0  0  0  0  0  0  0  0  0  0
    3.7849   -0.1144   -0.1035 C   0  0  0  0  0  0  0  0  0  0  0  0
    4.0751    0.2748   -1.4159 C   0  0  0  0  0  0  0  0  0  0  0  0
    4.8538    1.4092   -1.6806 C   0  0  0  0  0  0  0  0  0  0  0  0
    5.3733    2.1967   -0.6420 C   0  0  0  0  0  0  0  0  0  0  0  0
    6.2310    3.4487   -0.8963 C   0  0  0  0  0  0  0  0  0  0  0  0
    7.6208    3.2663   -0.2489 C   0  0  0  0  0  0  0  0  0  0  0  0
    6.4610    3.7550   -2.3935 C   0  0  0  0  0  0  0  0  0  0  0  0
    5.5410    4.6842   -0.2786 C   0  0  0  0  0  0  0  0  0  0  0  0
    5.0804    1.7954    0.6746 C   0  0  0  0  0  0  0  0  0  0  0  0
    4.3031    0.6621    0.9391 C   0  0  0  0  0  0  0  0  0  0  0  0
    3.4943   -2.3978    0.8289 C   0  0  0  0  0  0  0  0  0  0  0  0
    2.7134   -3.5087    1.1609 C   0  0  0  0  0  0  0  0  0  0  0  0
    1.3347   -3.5426    0.8167 C   0  0  0  0  0  0  0  0  0  0  0  0
    0.6014   -4.6613    1.2889 C   0  0  0  0  0  0  0  0  0  0  0  0
    1.1986   -5.7130    1.9896 C   0  0  0  0  0  0  0  0  0  0  0  0
    2.5557   -5.6755    2.2641 C   0  0  0  0  0  0  0  0  0  0  0  0
    3.3056   -4.5755    1.8586 C   0  0  0  0  0  0  0  0  0  0  0  0
    0.7428   -2.4532    0.0775 C   0  0  0  0  0  0  0  0  0  0  0  0
   -0.6265   -2.4485   -0.4000 C   0  0  0  0  0  0  0  0  0  0  0  0
   -1.4945   -1.3772   -0.0632 C   0  0  0  0  0  0  0  0  0  0  0  0
   -0.9966   -0.3091    0.6518 O   0  0  0  0  0  0  0  0  0  0  0  0
   -2.8697   -1.3677   -0.3517 C   0  0  0  0  0  0  0  0  0  0  0  0
   -3.7613   -0.2840    0.0797 C   0  0  0  0  0  0  0  0  0  0  0  0
   -4.5677   -0.4293    1.2143 C   0  0  0  0  0  0  0  0  0  0  0  0
   -5.4325    0.5948    1.6238 C   0  0  0  0  0  0  0  0  0  0  0  0
   -5.5230    1.8010    0.9125 C   0  0  0  0  0  0  0  0  0  0  0  0
   -6.4561    2.9488    1.3340 C   0  0  0  0  0  0  0  0  0  0  0  0
   -5.6219    4.2146    1.6270 C   0  0  0  0  0  0  0  0  0  0  0  0
   -7.2865    2.6451    2.6016 C   0  0  0  0  0  0  0  0  0  0  0  0
   -7.4551    3.2510    0.1961 C   0  0  0  0  0  0  0  0  0  0  0  0
   -4.7087    1.9349   -0.2276 C   0  0  0  0  0  0  0  0  0  0  0  0
   -3.8457    0.9121   -0.6377 C   0  0  0  0  0  0  0  0  0  0  0  0
   -3.3965   -2.4455   -1.0654 C   0  0  0  0  0  0  0  0  0  0  0  0
   -2.5847   -3.4917   -1.5119 C   0  0  0  0  0  0  0  0  0  0  0  0
   -1.1978   -3.4994   -1.2053 C   0  0  0  0  0  0  0  0  0  0  0  0
   -0.4360   -4.5508   -1.7763 C   0  0  0  0  0  0  0  0  0  0  0  0
   -1.0120   -5.5657   -2.5453 C   0  0  0  0  0  0  0  0  0  0  0  0
   -2.3759   -5.5563   -2.7878 C   0  0  0  0  0  0  0  0  0  0  0  0
   -3.1553   -4.5215   -2.2790 C   0  0  0  0  0  0  0  0  0  0  0  0
    1.3805    2.1092    0.7323 H   0  0  0  0  0  0  0  0  0  0  0  0
    3.6902   -0.3058   -2.2529 H   0  0  0  0  0  0  0  0  0  0  0  0
    5.0366    1.6512   -2.7241 H   0  0  0  0  0  0  0  0  0  0  0  0
    8.1265    2.3773   -0.6444 H   0  0  0  0  0  0  0  0  0  0  0  0
    7.5597    3.1530    0.8390 H   0  0  0  0  0  0  0  0  0  0  0  0
    8.2649    4.1315   -0.4451 H   0  0  0  0  0  0  0  0  0  0  0  0
    7.0752    4.6542   -2.5230 H   0  0  0  0  0  0  0  0  0  0  0  0
    6.9830    2.9335   -2.8979 H   0  0  0  0  0  0  0  0  0  0  0  0
    5.5154    3.9328   -2.9189 H   0  0  0  0  0  0  0  0  0  0  0  0
    5.4366    4.6004    0.8087 H   0  0  0  0  0  0  0  0  0  0  0  0
    6.1149    5.5973   -0.4757 H   0  0  0  0  0  0  0  0  0  0  0  0
    4.5367    4.8247   -0.6956 H   0  0  0  0  0  0  0  0  0  0  0  0
    5.4564    2.3634    1.5230 H   0  0  0  0  0  0  0  0  0  0  0  0
    4.0923    0.3964    1.9736 H   0  0  0  0  0  0  0  0  0  0  0  0
    4.5500   -2.3792    1.0986 H   0  0  0  0  0  0  0  0  0  0  0  0
   -0.4730   -4.7258    1.1259 H   0  0  0  0  0  0  0  0  0  0  0  0
    0.5949   -6.5532    2.3224 H   0  0  0  0  0  0  0  0  0  0  0  0
    3.0279   -6.4884    2.8087 H   0  0  0  0  0  0  0  0  0  0  0  0
    4.3650   -4.5512    2.1076 H   0  0  0  0  0  0  0  0  0  0  0  0
   -4.5253   -1.3472    1.7974 H   0  0  0  0  0  0  0  0  0  0  0  0
   -6.0257    0.4161    2.5162 H   0  0  0  0  0  0  0  0  0  0  0  0
   -4.8802    4.0252    2.4120 H   0  0  0  0  0  0  0  0  0  0  0  0
   -5.0812    4.5686    0.7425 H   0  0  0  0  0  0  0  0  0  0  0  0
   -6.2605    5.0397    1.9635 H   0  0  0  0  0  0  0  0  0  0  0  0
   -7.9359    3.4901    2.8603 H   0  0  0  0  0  0  0  0  0  0  0  0
   -7.9348    1.7725    2.4597 H   0  0  0  0  0  0  0  0  0  0  0  0
   -6.6439    2.4560    3.4693 H   0  0  0  0  0  0  0  0  0  0  0  0
   -8.0436    2.3616   -0.0586 H   0  0  0  0  0  0  0  0  0  0  0  0
   -6.9532    3.5861   -0.7183 H   0  0  0  0  0  0  0  0  0  0  0  0
   -8.1558    4.0431    0.4852 H   0  0  0  0  0  0  0  0  0  0  0  0
   -4.7281    2.8476   -0.8196 H   0  0  0  0  0  0  0  0  0  0  0  0
   -3.2322    1.0652   -1.5240 H   0  0  0  0  0  0  0  0  0  0  0  0
   -4.4611   -2.4471   -1.2992 H   0  0  0  0  0  0  0  0  0  0  0  0
    0.6433   -4.5879   -1.6387 H   0  0  0  0  0  0  0  0  0  0  0  0
   -0.3874   -6.3547   -2.9557 H   0  0  0  0  0  0  0  0  0  0  0  0
   -2.8322   -6.3402   -3.3857 H   0  0  0  0  0  0  0  0  0  0  0  0
   -4.2211   -4.5178   -2.5010 H   0  0  0  0  0  0  0  0  0  0  0  0
  1  2  2  0  0  0  0
  2 27  1  0  0  0  0
  2  3  1  0  0  0  0
  4  5  1  0  0  0  0
  4  2  1  0  0  0  0
  5 24  2  0  0  0  0
  5  6  1  0  0  0  0
  6 17  2  0  0  0  0
  7  6  1  0  0  0  0
  7 16  2  0  0  0  0
  8  7  1  0  0  0  0
  9  8  2  0  0  0  0
  9 10  1  0  0  0  0
 10 15  2  0  0  0  0
 11 10  1  0  0  0  0
 11 14  1  0  0  0  0
 11 12  1  0  0  0  0
 12 50  1  0  0  0  0
 13 11  1  0  0  0  0
 14 55  1  0  0  0  0
 15 16  1  0  0  0  0
 15 58  1  0  0  0  0
 16 59  1  0  0  0  0
 17 60  1  0  0  0  0
 17 18  1  0  0  0  0
 18 23  1  0  0  0  0
 19 18  2  0  0  0  0
 19 20  1  0  0  0  0
 20 21  2  0  0  0  0
 21 22  1  0  0  0  0
 21 62  1  0  0  0  0
 22 63  1  0  0  0  0
 23 64  1  0  0  0  0
 23 22  2  0  0  0  0
 24 19  1  0  0  0  0
 25 26  2  0  0  0  0
 25 24  1  0  0  0  0
 26 27  1  0  0  0  0
 28 26  1  0  0  0  0
 28 29  1  0  0  0  0
 29 30  2  0  0  0  0
 30 31  1  0  0  0  0
 30 65  1  0  0  0  0
 31 66  1  0  0  0  0
 32 33  1  0  0  0  0
 32 31  2  0  0  0  0
 33 34  1  0  0  0  0
 33 35  1  0  0  0  0
 34 69  1  0  0  0  0
 34 67  1  0  0  0  0
 35 70  1  0  0  0  0
 35 72  1  0  0  0  0
 36 75  1  0  0  0  0
 36 33  1  0  0  0  0
 37 32  1  0  0  0  0
 38 37  2  0  0  0  0
 38 29  1  0  0  0  0
 39 28  2  0  0  0  0
 40 41  1  0  0  0  0
 40 39  1  0  0  0  0
 41 25  1  0  0  0  0
 42 79  1  0  0  0  0
 42 41  2  0  0  0  0
 43 42  1  0  0  0  0
 44 43  2  0  0  0  0
 44 45  1  0  0  0  0
 45 40  2  0  0  0  0
 46  3  1  0  0  0  0
 47  8  1  0  0  0  0
 48  9  1  0  0  0  0
 49 12  1  0  0  0  0
 51 12  1  0  0  0  0
 52 13  1  0  0  0  0
 53 13  1  0  0  0  0
 54 13  1  0  0  0  0
 56 14  1  0  0  0  0
 57 14  1  0  0  0  0
 61 20  1  0  0  0  0
 68 34  1  0  0  0  0
 71 35  1  0  0  0  0
 73 36  1  0  0  0  0
 74 36  1  0  0  0  0
 76 37  1  0  0  0  0
 77 38  1  0  0  0  0
 78 39  1  0  0  0  0
 80 43  1  0  0  0  0
 81 44  1  0  0  0  0
 82 45  1  0  0  0  0
M  END
$$$$
