O=P1(O)OC2=C(CC3=CC(C(F)(F)F)=CC(C(F)(F)F)=C3)C=C4C(CCCC4)=C2C5=C(O1)C(CC6=CC(C(F)(F)F)=CC(C(F)(F)F)=C6)=CC7=C5CCCC7
 OpenBabel09032010373D

 84 89  0  0  0  0  0  0  0  0999 V2000
   -0.6357    3.1021   -0.5441 O   0  0  0  0  0  0  0  0  0  0  0  0
   -0.3444    1.6841   -0.1226 P   0  0  0  0  0  0  0  0  0  0  0  0
   -0.9519    1.4100    1.3507 O   0  0  0  0  0  0  0  0  0  0  0  0
    1.2268    1.3426   -0.0164 O   0  0  0  0  0  0  0  0  0  0  0  0
    1.6204    0.1639    0.5535 C   0  0  0  0  0  0  0  0  0  0  0  0
    2.3967    0.2430    1.7346 C   0  0  0  0  0  0  0  0  0  0  0  0
    2.9538    1.5535    2.2802 C   0  0  0  0  0  0  0  0  0  0  0  0
    1.9054    2.4771    2.8569 C   0  0  0  0  0  0  0  0  0  0  0  0
    1.3692    2.2689    4.1332 C   0  0  0  0  0  0  0  0  0  0  0  0
    0.2426    2.9904    4.5669 C   0  0  0  0  0  0  0  0  0  0  0  0
   -0.3669    2.7007    5.9161 C   0  0  0  0  0  0  0  0  0  0  0  0
   -1.1397    3.7166    6.3893 F   0  0  0  0  0  0  0  0  0  0  0  0
   -1.1669    1.5989    5.8912 F   0  0  0  0  0  0  0  0  0  0  0  0
    0.5670    2.4621    6.8791 F   0  0  0  0  0  0  0  0  0  0  0  0
   -0.3826    3.8808    3.6779 C   0  0  0  0  0  0  0  0  0  0  0  0
    0.1436    4.0912    2.3966 C   0  0  0  0  0  0  0  0  0  0  0  0
   -0.6968    4.7057    1.2920 C   0  0  0  0  0  0  0  0  0  0  0  0
   -1.4627    3.7409    0.6921 F   0  0  0  0  0  0  0  0  0  0  0  0
    0.0443    5.2352    0.2804 F   0  0  0  0  0  0  0  0  0  0  0  0
   -1.5405    5.6812    1.7221 F   0  0  0  0  0  0  0  0  0  0  0  0
    1.3451    3.4643    2.0413 C   0  0  0  0  0  0  0  0  0  0  0  0
    2.6866   -0.9435    2.4079 C   0  0  0  0  0  0  0  0  0  0  0  0
    2.2279   -2.1639    1.9127 C   0  0  0  0  0  0  0  0  0  0  0  0
    1.5125   -2.2231    0.6905 C   0  0  0  0  0  0  0  0  0  0  0  0
    0.8966   -3.5737    0.3601 C   0  0  0  0  0  0  0  0  0  0  0  0
    1.8405   -4.7577    0.5972 C   0  0  0  0  0  0  0  0  0  0  0  0
    2.8411   -4.5647    1.7384 C   0  0  0  0  0  0  0  0  0  0  0  0
    2.4576   -3.4378    2.6898 C   0  0  0  0  0  0  0  0  0  0  0  0
    1.2443   -1.0475   -0.0722 C   0  0  0  0  0  0  0  0  0  0  0  0
    0.6911   -1.0663   -1.4144 C   0  0  0  0  0  0  0  0  0  0  0  0
   -0.4790   -0.3401   -1.8052 C   0  0  0  0  0  0  0  0  0  0  0  0
   -1.0812    0.5036   -0.9133 O   0  0  0  0  0  0  0  0  0  0  0  0
   -1.1465   -0.5496   -3.0400 C   0  0  0  0  0  0  0  0  0  0  0  0
   -2.4741    0.0570   -3.4970 C   0  0  0  0  0  0  0  0  0  0  0  0
   -3.3305    0.7973   -2.4984 C   0  0  0  0  0  0  0  0  0  0  0  0
   -3.0516    2.1419   -2.2403 C   0  0  0  0  0  0  0  0  0  0  0  0
   -3.6329    2.8019   -1.1494 C   0  0  0  0  0  0  0  0  0  0  0  0
   -3.0009    4.1076   -0.7098 C   0  0  0  0  0  0  0  0  0  0  0  0
   -3.0733    5.0724   -1.6682 F   0  0  0  0  0  0  0  0  0  0  0  0
   -3.5752    4.6391    0.4054 F   0  0  0  0  0  0  0  0  0  0  0  0
   -1.6725    3.9381   -0.4260 F   0  0  0  0  0  0  0  0  0  0  0  0
   -4.6302    2.1519   -0.4077 C   0  0  0  0  0  0  0  0  0  0  0  0
   -4.9858    0.8212   -0.6996 C   0  0  0  0  0  0  0  0  0  0  0  0
   -5.9457    0.0845    0.2126 C   0  0  0  0  0  0  0  0  0  0  0  0
   -7.0321    0.8232    0.5627 F   0  0  0  0  0  0  0  0  0  0  0  0
   -6.4237   -1.0755   -0.3117 F   0  0  0  0  0  0  0  0  0  0  0  0
   -5.3175   -0.2518    1.3760 F   0  0  0  0  0  0  0  0  0  0  0  0
   -4.3134    0.1476   -1.7366 C   0  0  0  0  0  0  0  0  0  0  0  0
   -0.5357   -1.3944   -3.9767 C   0  0  0  0  0  0  0  0  0  0  0  0
    0.6849   -2.0021   -3.7059 C   0  0  0  0  0  0  0  0  0  0  0  0
    1.2995   -1.8356   -2.4455 C   0  0  0  0  0  0  0  0  0  0  0  0
    2.6675   -2.4894   -2.3047 C   0  0  0  0  0  0  0  0  0  0  0  0
    3.5276   -2.2203   -3.5416 C   0  0  0  0  0  0  0  0  0  0  0  0
    2.8388   -2.5703   -4.8641 C   0  0  0  0  0  0  0  0  0  0  0  0
    1.3502   -2.8858   -4.7304 C   0  0  0  0  0  0  0  0  0  0  0  0
   -0.8318    0.4800    1.6304 H   0  0  0  0  0  0  0  0  0  0  0  0
    3.5078    2.0583    1.4776 H   0  0  0  0  0  0  0  0  0  0  0  0
    3.7060    1.3534    3.0549 H   0  0  0  0  0  0  0  0  0  0  0  0
    1.7982    1.5049    4.7812 H   0  0  0  0  0  0  0  0  0  0  0  0
   -1.3269    4.3519    3.9551 H   0  0  0  0  0  0  0  0  0  0  0  0
    1.7453    3.6277    1.0391 H   0  0  0  0  0  0  0  0  0  0  0  0
    3.2598   -0.9198    3.3331 H   0  0  0  0  0  0  0  0  0  0  0  0
    0.0183   -3.6858    1.0111 H   0  0  0  0  0  0  0  0  0  0  0  0
    0.5083   -3.6336   -0.6592 H   0  0  0  0  0  0  0  0  0  0  0  0
    1.2349   -5.6532    0.7846 H   0  0  0  0  0  0  0  0  0  0  0  0
    2.4039   -4.9716   -0.3189 H   0  0  0  0  0  0  0  0  0  0  0  0
    2.9598   -5.5030    2.2925 H   0  0  0  0  0  0  0  0  0  0  0  0
    3.8244   -4.3410    1.3025 H   0  0  0  0  0  0  0  0  0  0  0  0
    3.2605   -3.3033    3.4240 H   0  0  0  0  0  0  0  0  0  0  0  0
    1.5448   -3.6900    3.2427 H   0  0  0  0  0  0  0  0  0  0  0  0
   -2.2596    0.7355   -4.3346 H   0  0  0  0  0  0  0  0  0  0  0  0
   -3.0900   -0.7497   -3.9192 H   0  0  0  0  0  0  0  0  0  0  0  0
   -2.2550    2.6435   -2.7940 H   0  0  0  0  0  0  0  0  0  0  0  0
   -5.0881    2.6536    0.4478 H   0  0  0  0  0  0  0  0  0  0  0  0
   -4.5221   -0.9071   -1.9160 H   0  0  0  0  0  0  0  0  0  0  0  0
   -1.0108   -1.5622   -4.9428 H   0  0  0  0  0  0  0  0  0  0  0  0
    3.2173   -2.1112   -1.4382 H   0  0  0  0  0  0  0  0  0  0  0  0
    2.5347   -3.5685   -2.1737 H   0  0  0  0  0  0  0  0  0  0  0  0
    3.7934   -1.1546   -3.5615 H   0  0  0  0  0  0  0  0  0  0  0  0
    4.4745   -2.7670   -3.4610 H   0  0  0  0  0  0  0  0  0  0  0  0
    3.3443   -3.4213   -5.3362 H   0  0  0  0  0  0  0  0  0  0  0  0
    2.9694   -1.7255   -5.5532 H   0  0  0  0  0  0  0  0  0  0  0  0
    1.2143   -3.9301   -4.4213 H   0  0  0  0  0  0  0  0  0  0  0  0
    0.8727   -2.7835   -5.7120 H   0  0  0  0  0  0  0  0  0  0  0  0
  1  2  2  0  0  0  0
  2  4  1  0  0  0  0
  2  3  1  0  0  0  0
  3 56  1  0  0  0  0
  4  5  1  0  0  0  0
  5  6  1  0  0  0  0
  6  7  1  0  0  0  0
  6 22  2  0  0  0  0
  7  8  1  0  0  0  0
  7 58  1  0  0  0  0
  8  9  2  0  0  0  0
  9 10  1  0  0  0  0
  9 59  1  0  0  0  0
 10 11  1  0  0  0  0
 11 12  1  0  0  0  0
 11 14  1  0  0  0  0
 13 11  1  0  0  0  0
 15 60  1  0  0  0  0
 15 10  2  0  0  0  0
 16 15  1  0  0  0  0
 17 20  1  0  0  0  0
 17 16  1  0  0  0  0
 19 17  1  0  0  0  0
 21 16  2  0  0  0  0
 21  8  1  0  0  0  0
 22 62  1  0  0  0  0
 23 22  1  0  0  0  0
 23 28  1  0  0  0  0
 24 23  2  0  0  0  0
 25 26  1  0  0  0  0
 25 24  1  0  0  0  0
 25 63  1  0  0  0  0
 26 65  1  0  0  0  0
 26 27  1  0  0  0  0
 27 67  1  0  0  0  0
 27 28  1  0  0  0  0
 28 70  1  0  0  0  0
 28 69  1  0  0  0  0
 29  5  2  0  0  0  0
 29 24  1  0  0  0  0
 30 29  1  0  0  0  0
 31 30  1  0  0  0  0
 31 32  1  0  0  0  0
 32  2  1  0  0  0  0
 33 31  2  0  0  0  0
 34 33  1  0  0  0  0
 34 35  1  0  0  0  0
 35 36  2  0  0  0  0
 35 48  1  0  0  0  0
 36 37  1  0  0  0  0
 37 38  1  0  0  0  0
 37 42  2  0  0  0  0
 38 40  1  0  0  0  0
 39 38  1  0  0  0  0
 41 18  1  0  0  0  0
 42 74  1  0  0  0  0
 43 42  1  0  0  0  0
 43 44  1  0  0  0  0
 44 45  1  0  0  0  0
 44 47  1  0  0  0  0
 46 44  1  0  0  0  0
 48 43  2  0  0  0  0
 49 50  2  0  0  0  0
 49 33  1  0  0  0  0
 50 51  1  0  0  0  0
 51 52  1  0  0  0  0
 51 30  2  0  0  0  0
 52 78  1  0  0  0  0
 52 77  1  0  0  0  0
 53 80  1  0  0  0  0
 53 52  1  0  0  0  0
 54 55  1  0  0  0  0
 54 53  1  0  0  0  0
 55 83  1  0  0  0  0
 55 50  1  0  0  0  0
 57  7  1  0  0  0  0
 61 21  1  0  0  0  0
 64 25  1  0  0  0  0
 66 26  1  0  0  0  0
 68 27  1  0  0  0  0
 71 34  1  0  0  0  0
 72 34  1  0  0  0  0
 73 36  1  0  0  0  0
 75 48  1  0  0  0  0
 76 49  1  0  0  0  0
 79 53  1  0  0  0  0
 81 54  1  0  0  0  0
 82 54  1  0  0  0  0
 84 55  1  0  0  0  0
M  RAD  2  17   2  38   2
M  END
$$$$
