O=P1(O)OC2=C(C3=CC(C4=C(C)C=C(C)C=C4C)=CC(C5=C(C)C=C(C)C=C5C)=C3)C=C6C(CCCC6)=C2C7=C(O1)C(C8=CC(C9=C(C)C=C(C)C=C9C)=CC(C%10=C(C)C=C(C)C=C%10C)=C8)=CC%11=C7CCCC%11
 OpenBabel09032010383D

142152  0  0  0  0  0  0  0  0999 V2000
    0.8174    0.4125    1.3226 O   0  0  0  0  0  0  0  0  0  0  0  0
    0.1955    0.2967   -0.0349 P   0  0  0  0  0  0  0  0  0  0  0  0
   -0.6704    1.6111   -0.3719 O   0  0  0  0  0  0  0  0  0  0  0  0
   -0.8287   -0.9341   -0.2319 O   0  0  0  0  0  0  0  0  0  0  0  0
   -1.2750   -1.2483   -1.4982 C   0  0  0  0  0  0  0  0  0  0  0  0
   -2.6620   -1.1713   -1.7235 C   0  0  0  0  0  0  0  0  0  0  0  0
   -3.6159   -0.8487   -0.6526 C   0  0  0  0  0  0  0  0  0  0  0  0
   -4.4239   -1.8509   -0.0941 C   0  0  0  0  0  0  0  0  0  0  0  0
   -5.3267   -1.5706    0.9433 C   0  0  0  0  0  0  0  0  0  0  0  0
   -6.1740   -2.6346    1.5087 C   0  0  0  0  0  0  0  0  0  0  0  0
   -5.7422   -3.3816    2.6322 C   0  0  0  0  0  0  0  0  0  0  0  0
   -4.4103   -3.1172    3.2870 C   0  0  0  0  0  0  0  0  0  0  0  0
   -6.5641   -4.3933    3.1579 C   0  0  0  0  0  0  0  0  0  0  0  0
   -7.8107   -4.6760    2.5948 C   0  0  0  0  0  0  0  0  0  0  0  0
   -8.6604   -5.7830    3.1450 C   0  0  0  0  0  0  0  0  0  0  0  0
   -8.2295   -3.9501    1.4771 C   0  0  0  0  0  0  0  0  0  0  0  0
   -7.4336   -2.9291    0.9323 C   0  0  0  0  0  0  0  0  0  0  0  0
   -7.9473   -2.1733   -0.2667 C   0  0  0  0  0  0  0  0  0  0  0  0
   -5.4055   -0.2587    1.4318 C   0  0  0  0  0  0  0  0  0  0  0  0
   -4.6127    0.7649    0.8945 C   0  0  0  0  0  0  0  0  0  0  0  0
   -4.6826    2.1334    1.4353 C   0  0  0  0  0  0  0  0  0  0  0  0
   -3.7947    2.5451    2.4606 C   0  0  0  0  0  0  0  0  0  0  0  0
   -2.7580    1.6072    3.0273 C   0  0  0  0  0  0  0  0  0  0  0  0
   -3.8753    3.8511    2.9732 C   0  0  0  0  0  0  0  0  0  0  0  0
   -4.8129    4.7631    2.4824 C   0  0  0  0  0  0  0  0  0  0  0  0
   -4.9130    6.1410    3.0673 C   0  0  0  0  0  0  0  0  0  0  0  0
   -5.6967    4.3532    1.4806 C   0  0  0  0  0  0  0  0  0  0  0  0
   -5.6394    3.0550    0.9458 C   0  0  0  0  0  0  0  0  0  0  0  0
   -6.6168    2.6733   -0.1365 C   0  0  0  0  0  0  0  0  0  0  0  0
   -3.7371    0.4571   -0.1576 C   0  0  0  0  0  0  0  0  0  0  0  0
   -3.1313   -1.4348   -3.0126 C   0  0  0  0  0  0  0  0  0  0  0  0
   -2.2518   -1.7263   -4.0644 C   0  0  0  0  0  0  0  0  0  0  0  0
   -0.8629   -1.8165   -3.8132 C   0  0  0  0  0  0  0  0  0  0  0  0
    0.0960   -1.9560   -4.9893 C   0  0  0  0  0  0  0  0  0  0  0  0
   -0.5252   -1.5988   -6.3389 C   0  0  0  0  0  0  0  0  0  0  0  0
   -1.8464   -2.3311   -6.5039 C   0  0  0  0  0  0  0  0  0  0  0  0
   -2.8391   -1.8522   -5.4518 C   0  0  0  0  0  0  0  0  0  0  0  0
   -0.3530   -1.6837   -2.4839 C   0  0  0  0  0  0  0  0  0  0  0  0
    1.0154   -1.9615   -2.1369 C   0  0  0  0  0  0  0  0  0  0  0  0
    1.8172   -0.9517   -1.5609 C   0  0  0  0  0  0  0  0  0  0  0  0
    1.2203    0.2539   -1.2749 O   0  0  0  0  0  0  0  0  0  0  0  0
    3.1896   -1.0930   -1.2750 C   0  0  0  0  0  0  0  0  0  0  0  0
    3.9782   -0.0109   -0.6501 C   0  0  0  0  0  0  0  0  0  0  0  0
    3.9227    1.3042   -1.1359 C   0  0  0  0  0  0  0  0  0  0  0  0
    4.5447    2.3689   -0.4661 C   0  0  0  0  0  0  0  0  0  0  0  0
    4.3079    3.7500   -0.9143 C   0  0  0  0  0  0  0  0  0  0  0  0
    3.2483    4.5019   -0.3454 C   0  0  0  0  0  0  0  0  0  0  0  0
    2.4090    3.9574    0.7827 C   0  0  0  0  0  0  0  0  0  0  0  0
    2.9780    5.7942   -0.8170 C   0  0  0  0  0  0  0  0  0  0  0  0
    3.7394    6.3608   -1.8431 C   0  0  0  0  0  0  0  0  0  0  0  0
    3.4594    7.7571   -2.3140 C   0  0  0  0  0  0  0  0  0  0  0  0
    4.8024    5.6308   -2.3833 C   0  0  0  0  0  0  0  0  0  0  0  0
    5.0949    4.3318   -1.9350 C   0  0  0  0  0  0  0  0  0  0  0  0
    6.2361    3.5816   -2.5713 C   0  0  0  0  0  0  0  0  0  0  0  0
    5.3025    2.0960    0.6780 C   0  0  0  0  0  0  0  0  0  0  0  0
    5.4127    0.7901    1.1738 C   0  0  0  0  0  0  0  0  0  0  0  0
    6.1622    0.5198    2.4125 C   0  0  0  0  0  0  0  0  0  0  0  0
    7.5615    0.3081    2.3778 C   0  0  0  0  0  0  0  0  0  0  0  0
    8.3330    0.3586    1.0840 C   0  0  0  0  0  0  0  0  0  0  0  0
    8.2596    0.0565    3.5711 C   0  0  0  0  0  0  0  0  0  0  0  0
    7.5949   -0.0084    4.7985 C   0  0  0  0  0  0  0  0  0  0  0  0
    8.3598   -0.2494    6.0662 C   0  0  0  0  0  0  0  0  0  0  0  0
    6.2156    0.2108    4.8343 C   0  0  0  0  0  0  0  0  0  0  0  0
    5.4907    0.4725    3.6596 C   0  0  0  0  0  0  0  0  0  0  0  0
    4.0005    0.6874    3.7611 C   0  0  0  0  0  0  0  0  0  0  0  0
    4.7451   -0.2481    0.5025 C   0  0  0  0  0  0  0  0  0  0  0  0
    3.7736   -2.3298   -1.5595 C   0  0  0  0  0  0  0  0  0  0  0  0
    3.0167   -3.4061   -2.0490 C   0  0  0  0  0  0  0  0  0  0  0  0
    1.6332   -3.2414   -2.2966 C   0  0  0  0  0  0  0  0  0  0  0  0
    0.7898   -4.4643   -2.6341 C   0  0  0  0  0  0  0  0  0  0  0  0
    1.4628   -5.7931   -2.2930 C   0  0  0  0  0  0  0  0  0  0  0  0
    2.8706   -5.8144   -2.8645 C   0  0  0  0  0  0  0  0  0  0  0  0
    3.7171   -4.7386   -2.1954 C   0  0  0  0  0  0  0  0  0  0  0  0
   -0.2534    2.3992    0.0210 H   0  0  0  0  0  0  0  0  0  0  0  0
   -4.3443   -2.8721   -0.4651 H   0  0  0  0  0  0  0  0  0  0  0  0
   -4.2312   -3.8024    4.1227 H   0  0  0  0  0  0  0  0  0  0  0  0
   -4.3759   -2.0989    3.6870 H   0  0  0  0  0  0  0  0  0  0  0  0
   -3.5951   -3.2599    2.5705 H   0  0  0  0  0  0  0  0  0  0  0  0
   -6.2269   -4.9681    4.0187 H   0  0  0  0  0  0  0  0  0  0  0  0
   -8.4110   -6.7269    2.6506 H   0  0  0  0  0  0  0  0  0  0  0  0
   -9.7241   -5.5729    2.9912 H   0  0  0  0  0  0  0  0  0  0  0  0
   -8.5053   -5.8960    4.2232 H   0  0  0  0  0  0  0  0  0  0  0  0
   -9.1918   -4.1797    1.0241 H   0  0  0  0  0  0  0  0  0  0  0  0
   -8.0139   -1.1030   -0.0470 H   0  0  0  0  0  0  0  0  0  0  0  0
   -8.9507   -2.5076   -0.5520 H   0  0  0  0  0  0  0  0  0  0  0  0
   -7.2923   -2.3331   -1.1289 H   0  0  0  0  0  0  0  0  0  0  0  0
   -6.0926   -0.0316    2.2459 H   0  0  0  0  0  0  0  0  0  0  0  0
   -3.2371    0.7269    3.4675 H   0  0  0  0  0  0  0  0  0  0  0  0
   -2.1720    2.0880    3.8180 H   0  0  0  0  0  0  0  0  0  0  0  0
   -2.0568    1.2944    2.2479 H   0  0  0  0  0  0  0  0  0  0  0  0
   -3.1991    4.1592    3.7686 H   0  0  0  0  0  0  0  0  0  0  0  0
   -5.6085    6.1390    3.9122 H   0  0  0  0  0  0  0  0  0  0  0  0
   -5.2663    6.8584    2.3192 H   0  0  0  0  0  0  0  0  0  0  0  0
   -3.9349    6.4902    3.4144 H   0  0  0  0  0  0  0  0  0  0  0  0
   -6.4423    5.0540    1.1096 H   0  0  0  0  0  0  0  0  0  0  0  0
   -6.0863    2.3413   -1.0345 H   0  0  0  0  0  0  0  0  0  0  0  0
   -7.2443    3.5225   -0.4278 H   0  0  0  0  0  0  0  0  0  0  0  0
   -7.2828    1.8783    0.2136 H   0  0  0  0  0  0  0  0  0  0  0  0
   -3.1303    1.2517   -0.5882 H   0  0  0  0  0  0  0  0  0  0  0  0
   -4.2003   -1.3651   -3.2122 H   0  0  0  0  0  0  0  0  0  0  0  0
    0.4583   -2.9831   -5.0531 H   0  0  0  0  0  0  0  0  0  0  0  0
    0.9640   -1.3031   -4.8390 H   0  0  0  0  0  0  0  0  0  0  0  0
   -0.6854   -0.5154   -6.4079 H   0  0  0  0  0  0  0  0  0  0  0  0
    0.1638   -1.8751   -7.1450 H   0  0  0  0  0  0  0  0  0  0  0  0
   -2.2569   -2.1591   -7.5051 H   0  0  0  0  0  0  0  0  0  0  0  0
   -1.6858   -3.4120   -6.4039 H   0  0  0  0  0  0  0  0  0  0  0  0
   -3.6923   -2.5409   -5.4305 H   0  0  0  0  0  0  0  0  0  0  0  0
   -3.2185   -0.8652   -5.7466 H   0  0  0  0  0  0  0  0  0  0  0  0
    3.3366    1.5235   -2.0282 H   0  0  0  0  0  0  0  0  0  0  0  0
    1.5668    4.6194    1.0115 H   0  0  0  0  0  0  0  0  0  0  0  0
    1.9856    2.9849    0.5172 H   0  0  0  0  0  0  0  0  0  0  0  0
    3.0112    3.8614    1.6916 H   0  0  0  0  0  0  0  0  0  0  0  0
    2.1659    6.3685   -0.3756 H   0  0  0  0  0  0  0  0  0  0  0  0
    2.3942    7.9944   -2.2225 H   0  0  0  0  0  0  0  0  0  0  0  0
    4.0341    8.4745   -1.7202 H   0  0  0  0  0  0  0  0  0  0  0  0
    3.7279    7.8750   -3.3691 H   0  0  0  0  0  0  0  0  0  0  0  0
    5.4111    6.0787   -3.1674 H   0  0  0  0  0  0  0  0  0  0  0  0
    6.7982    4.2188   -3.2625 H   0  0  0  0  0  0  0  0  0  0  0  0
    5.8588    2.7269   -3.1413 H   0  0  0  0  0  0  0  0  0  0  0  0
    6.9414    3.2338   -1.8096 H   0  0  0  0  0  0  0  0  0  0  0  0
    5.7814    2.9148    1.2129 H   0  0  0  0  0  0  0  0  0  0  0  0
    9.3857    0.0956    1.2344 H   0  0  0  0  0  0  0  0  0  0  0  0
    8.3030    1.3679    0.6614 H   0  0  0  0  0  0  0  0  0  0  0  0
    7.9231   -0.3555    0.3627 H   0  0  0  0  0  0  0  0  0  0  0  0
    9.3372   -0.0939    3.5417 H   0  0  0  0  0  0  0  0  0  0  0  0
    8.6937    0.7034    6.4884 H   0  0  0  0  0  0  0  0  0  0  0  0
    7.7387   -0.7662    6.8054 H   0  0  0  0  0  0  0  0  0  0  0  0
    9.2351   -0.8808    5.8805 H   0  0  0  0  0  0  0  0  0  0  0  0
    5.6948    0.1779    5.7896 H   0  0  0  0  0  0  0  0  0  0  0  0
    3.4633   -0.1220    3.2570 H   0  0  0  0  0  0  0  0  0  0  0  0
    3.7175    1.6490    3.3215 H   0  0  0  0  0  0  0  0  0  0  0  0
    3.6689    0.7020    4.8050 H   0  0  0  0  0  0  0  0  0  0  0  0
    4.7911   -1.2520    0.9232 H   0  0  0  0  0  0  0  0  0  0  0  0
    4.8342   -2.4789   -1.3579 H   0  0  0  0  0  0  0  0  0  0  0  0
    0.5635   -4.4735   -3.7015 H   0  0  0  0  0  0  0  0  0  0  0  0
   -0.1605   -4.4229   -2.0888 H   0  0  0  0  0  0  0  0  0  0  0  0
    1.4968   -5.9330   -1.2052 H   0  0  0  0  0  0  0  0  0  0  0  0
    0.8741   -6.6197   -2.7065 H   0  0  0  0  0  0  0  0  0  0  0  0
    3.3314   -6.7965   -2.7106 H   0  0  0  0  0  0  0  0  0  0  0  0
    2.8334   -5.6432   -3.9478 H   0  0  0  0  0  0  0  0  0  0  0  0
    4.6424   -4.6077   -2.7693 H   0  0  0  0  0  0  0  0  0  0  0  0
    3.9968   -5.0830   -1.1913 H   0  0  0  0  0  0  0  0  0  0  0  0
  2  1  2  0  0  0  0
  3  2  1  0  0  0  0
  3 74  1  0  0  0  0
  4  2  1  0  0  0  0
  5  4  1  0  0  0  0
  6  5  1  0  0  0  0
  6  7  1  0  0  0  0
  7 30  2  0  0  0  0
  7  8  1  0  0  0  0
  8  9  2  0  0  0  0
  9 19  1  0  0  0  0
  9 10  1  0  0  0  0
 10 11  2  0  0  0  0
 11 13  1  0  0  0  0
 11 12  1  0  0  0  0
 12 77  1  0  0  0  0
 12 76  1  0  0  0  0
 13 79  1  0  0  0  0
 14 15  1  0  0  0  0
 14 13  2  0  0  0  0
 15 82  1  0  0  0  0
 16 14  1  0  0  0  0
 17 16  2  0  0  0  0
 17 10  1  0  0  0  0
 18 84  1  0  0  0  0
 18 17  1  0  0  0  0
 19 87  1  0  0  0  0
 20 19  2  0  0  0  0
 20 21  1  0  0  0  0
 21 22  1  0  0  0  0
 22 24  2  0  0  0  0
 22 23  1  0  0  0  0
 23 88  1  0  0  0  0
 23 89  1  0  0  0  0
 24 91  1  0  0  0  0
 25 24  1  0  0  0  0
 25 26  1  0  0  0  0
 26 94  1  0  0  0  0
 26 92  1  0  0  0  0
 27 25  2  0  0  0  0
 28 21  2  0  0  0  0
 28 27  1  0  0  0  0
 29 98  1  0  0  0  0
 29 28  1  0  0  0  0
 30 20  1  0  0  0  0
 31  6  2  0  0  0  0
 32 33  2  0  0  0  0
 32 31  1  0  0  0  0
 33 38  1  0  0  0  0
 34102  1  0  0  0  0
 34 33  1  0  0  0  0
 35 34  1  0  0  0  0
 36106  1  0  0  0  0
 36 35  1  0  0  0  0
 36 37  1  0  0  0  0
 37107  1  0  0  0  0
 37 32  1  0  0  0  0
 38 39  1  0  0  0  0
 38  5  2  0  0  0  0
 39 40  1  0  0  0  0
 40 42  2  0  0  0  0
 40 41  1  0  0  0  0
 41  2  1  0  0  0  0
 42 43  1  0  0  0  0
 43 66  1  0  0  0  0
 44 43  2  0  0  0  0
 44 45  1  0  0  0  0
 45 55  2  0  0  0  0
 46 45  1  0  0  0  0
 46 47  2  0  0  0  0
 47 48  1  0  0  0  0
 48110  1  0  0  0  0
 48112  1  0  0  0  0
 49113  1  0  0  0  0
 49 47  1  0  0  0  0
 50 49  2  0  0  0  0
 51114  1  0  0  0  0
 51 50  1  0  0  0  0
 51115  1  0  0  0  0
 52 53  2  0  0  0  0
 52 50  1  0  0  0  0
 53 46  1  0  0  0  0
 54 53  1  0  0  0  0
 54120  1  0  0  0  0
 55 56  1  0  0  0  0
 55121  1  0  0  0  0
 56 57  1  0  0  0  0
 57 64  1  0  0  0  0
 58 57  2  0  0  0  0
 58 60  1  0  0  0  0
 59122  1  0  0  0  0
 59 58  1  0  0  0  0
 60 61  2  0  0  0  0
 61 63  1  0  0  0  0
 61 62  1  0  0  0  0
 62126  1  0  0  0  0
 62127  1  0  0  0  0
 63129  1  0  0  0  0
 64 65  1  0  0  0  0
 64 63  2  0  0  0  0
 65132  1  0  0  0  0
 66133  1  0  0  0  0
 66 56  2  0  0  0  0
 67134  1  0  0  0  0
 67 42  1  0  0  0  0
 68 67  2  0  0  0  0
 69 39  2  0  0  0  0
 69 68  1  0  0  0  0
 70 69  1  0  0  0  0
 70 71  1  0  0  0  0
 70136  1  0  0  0  0
 71137  1  0  0  0  0
 72139  1  0  0  0  0
 72 71  1  0  0  0  0
 72 73  1  0  0  0  0
 73 68  1  0  0  0  0
 73142  1  0  0  0  0
 75  8  1  0  0  0  0
 78 12  1  0  0  0  0
 80 15  1  0  0  0  0
 81 15  1  0  0  0  0
 83 16  1  0  0  0  0
 85 18  1  0  0  0  0
 86 18  1  0  0  0  0
 90 23  1  0  0  0  0
 93 26  1  0  0  0  0
 95 27  1  0  0  0  0
 96 29  1  0  0  0  0
 97 29  1  0  0  0  0
 99 30  1  0  0  0  0
100 31  1  0  0  0  0
101 34  1  0  0  0  0
103 35  1  0  0  0  0
104 35  1  0  0  0  0
105 36  1  0  0  0  0
108 37  1  0  0  0  0
109 44  1  0  0  0  0
111 48  1  0  0  0  0
116 51  1  0  0  0  0
117 52  1  0  0  0  0
118 54  1  0  0  0  0
119 54  1  0  0  0  0
123 59  1  0  0  0  0
124 59  1  0  0  0  0
125 60  1  0  0  0  0
128 62  1  0  0  0  0
130 65  1  0  0  0  0
131 65  1  0  0  0  0
135 70  1  0  0  0  0
138 71  1  0  0  0  0
140 72  1  0  0  0  0
141 73  1  0  0  0  0
M  END
$$$$
