O=P1(O)OC2=C(C3=C(C=CC=C4)C4=C(C5=CC(C=CC=C6)=C6C=C5)C7=C3C=CC=C7)C=C8C(C=CC=C8)=[C@]2[C@]9=C(O1)C(C%10=C(C=CC=C%11)C%11=C(C%12=CC=C(C=CC=C%13)C%13=C%12)C%14=C%10C=CC=C%14)=CC%15=C9C=CC=C%15
 OpenBabel09032010373D

114128  0  0  0  0  0  0  0  0999 V2000
    0.3108    1.2435    0.0738 O   0  0  0  0  0  0  0  0  0  0  0  0
   -0.0919   -0.1895   -0.0654 P   0  0  0  0  0  0  0  0  0  0  0  0
   -0.6780   -0.4926   -1.5307 O   0  0  0  0  0  0  0  0  0  0  0  0
   -1.2762   -0.6589    0.9203 O   0  0  0  0  0  0  0  0  0  0  0  0
   -1.6125   -1.9916    0.9967 C   0  0  0  0  0  0  0  0  0  0  0  0
   -2.9205   -2.3276    0.5953 C   0  0  0  0  0  0  0  0  0  0  0  0
   -3.8842   -1.3070    0.1028 C   0  0  0  0  0  0  0  0  0  0  0  0
   -4.6267   -0.5278    1.0445 C   0  0  0  0  0  0  0  0  0  0  0  0
   -4.4989   -0.7006    2.4493 C   0  0  0  0  0  0  0  0  0  0  0  0
   -5.2191    0.0593    3.3698 C   0  0  0  0  0  0  0  0  0  0  0  0
   -6.0974    1.0222    2.9139 C   0  0  0  0  0  0  0  0  0  0  0  0
   -6.2479    1.2151    1.5418 C   0  0  0  0  0  0  0  0  0  0  0  0
   -5.5301    0.4569    0.5781 C   0  0  0  0  0  0  0  0  0  0  0  0
   -5.6912    0.6573   -0.8270 C   0  0  0  0  0  0  0  0  0  0  0  0
   -6.6272    1.6982   -1.3142 C   0  0  0  0  0  0  0  0  0  0  0  0
   -6.1845    3.0153   -1.5211 C   0  0  0  0  0  0  0  0  0  0  0  0
   -7.0577    4.0149   -1.9808 C   0  0  0  0  0  0  0  0  0  0  0  0
   -6.6170    5.3317   -2.1877 C   0  0  0  0  0  0  0  0  0  0  0  0
   -7.4963    6.3146   -2.6442 C   0  0  0  0  0  0  0  0  0  0  0  0
   -8.8266    5.9945   -2.8993 C   0  0  0  0  0  0  0  0  0  0  0  0
   -9.2801    4.6897   -2.6983 C   0  0  0  0  0  0  0  0  0  0  0  0
   -8.4082    3.6890   -2.2398 C   0  0  0  0  0  0  0  0  0  0  0  0
   -8.8490    2.3733   -2.0326 C   0  0  0  0  0  0  0  0  0  0  0  0
   -7.9690    1.3896   -1.5752 C   0  0  0  0  0  0  0  0  0  0  0  0
   -4.9594   -0.1296   -1.7682 C   0  0  0  0  0  0  0  0  0  0  0  0
   -4.0589   -1.1175   -1.3033 C   0  0  0  0  0  0  0  0  0  0  0  0
   -3.3533   -1.8814   -2.2715 C   0  0  0  0  0  0  0  0  0  0  0  0
   -3.5089   -1.6885   -3.6431 C   0  0  0  0  0  0  0  0  0  0  0  0
   -4.3843   -0.7221   -4.0957 C   0  0  0  0  0  0  0  0  0  0  0  0
   -5.0958    0.0417   -3.1721 C   0  0  0  0  0  0  0  0  0  0  0  0
   -3.3186   -3.6624    0.6885 C   0  0  0  0  0  0  0  0  0  0  0  0
   -2.4364   -4.6506    1.1275 C   0  0  0  0  0  0  0  0  0  0  0  0
   -1.1224   -4.3024    1.5427 C   0  0  0  0  0  0  0  0  0  0  0  0
   -0.2699   -5.3838    1.8831 C   0  0  0  0  0  0  0  0  0  0  0  0
   -0.7002   -6.7138    1.8789 C   0  0  0  0  0  0  0  0  0  0  0  0
   -2.0026   -7.0148    1.5155 C   0  0  0  0  0  0  0  0  0  0  0  0
   -2.8630   -5.9890    1.1367 C   0  0  0  0  0  0  0  0  0  0  0  0
   -0.7010   -2.9217    1.5549 C   0  0  0  0  0  0  0  0  0  0  0  0
    0.5580   -2.4712    2.1198 C   0  0  0  0  0  0  0  0  0  0  0  0
    1.4411   -1.6732    1.3528 C   0  0  0  0  0  0  0  0  0  0  0  0
    1.0724   -1.2885    0.0853 O   0  0  0  0  0  0  0  0  0  0  0  0
    2.7384   -1.3224    1.7683 C   0  0  0  0  0  0  0  0  0  0  0  0
    3.6584   -0.5349    0.9063 C   0  0  0  0  0  0  0  0  0  0  0  0
    4.4111   -1.1976   -0.1132 C   0  0  0  0  0  0  0  0  0  0  0  0
    4.3266   -2.5985   -0.3377 C   0  0  0  0  0  0  0  0  0  0  0  0
    5.0528   -3.2465   -1.3358 C   0  0  0  0  0  0  0  0  0  0  0  0
    5.8943   -2.5108   -2.1464 C   0  0  0  0  0  0  0  0  0  0  0  0
    6.0031   -1.1350   -1.9496 C   0  0  0  0  0  0  0  0  0  0  0  0
    5.2781   -0.4452   -0.9408 C   0  0  0  0  0  0  0  0  0  0  0  0
    5.3966    0.9644   -0.7410 C   0  0  0  0  0  0  0  0  0  0  0  0
    6.2878    1.7564   -1.6215 C   0  0  0  0  0  0  0  0  0  0  0  0
    5.7961    2.3226   -2.8055 C   0  0  0  0  0  0  0  0  0  0  0  0
    6.6307    3.0746   -3.6343 C   0  0  0  0  0  0  0  0  0  0  0  0
    7.9776    3.2790   -3.2993 C   0  0  0  0  0  0  0  0  0  0  0  0
    8.8293    4.0340   -4.1218 C   0  0  0  0  0  0  0  0  0  0  0  0
   10.1670    4.2306   -3.7751 C   0  0  0  0  0  0  0  0  0  0  0  0
   10.6693    3.6746   -2.6023 C   0  0  0  0  0  0  0  0  0  0  0  0
    9.8360    2.9207   -1.7741 C   0  0  0  0  0  0  0  0  0  0  0  0
    8.4881    2.7139   -2.1086 C   0  0  0  0  0  0  0  0  0  0  0  0
    7.6365    1.9590   -1.2847 C   0  0  0  0  0  0  0  0  0  0  0  0
    4.6589    1.6240    0.2895 C   0  0  0  0  0  0  0  0  0  0  0  0
    3.7837    0.8747    1.1113 C   0  0  0  0  0  0  0  0  0  0  0  0
    3.0541    1.5705    2.1129 C   0  0  0  0  0  0  0  0  0  0  0  0
    3.1791    2.9437    2.3181 C   0  0  0  0  0  0  0  0  0  0  0  0
    4.0405    3.6724    1.5225 C   0  0  0  0  0  0  0  0  0  0  0  0
    4.7640    3.0215    0.5250 C   0  0  0  0  0  0  0  0  0  0  0  0
    3.1635   -1.7449    3.0295 C   0  0  0  0  0  0  0  0  0  0  0  0
    2.3139   -2.4553    3.8798 C   0  0  0  0  0  0  0  0  0  0  0  0
    1.0044   -2.8049    3.4519 C   0  0  0  0  0  0  0  0  0  0  0  0
    0.1815   -3.4382    4.4184 C   0  0  0  0  0  0  0  0  0  0  0  0
    0.6378   -3.7691    5.6976 C   0  0  0  0  0  0  0  0  0  0  0  0
    1.9365   -3.4593    6.0667 C   0  0  0  0  0  0  0  0  0  0  0  0
    2.7663   -2.8001    5.1646 C   0  0  0  0  0  0  0  0  0  0  0  0
   -1.2392    0.2434   -1.8362 H   0  0  0  0  0  0  0  0  0  0  0  0
   -3.8189   -1.4464    2.8565 H   0  0  0  0  0  0  0  0  0  0  0  0
   -5.0882   -0.1049    4.4356 H   0  0  0  0  0  0  0  0  0  0  0  0
   -6.6660    1.6256    3.6158 H   0  0  0  0  0  0  0  0  0  0  0  0
   -6.9514    1.9853    1.2287 H   0  0  0  0  0  0  0  0  0  0  0  0
   -5.1431    3.2598   -1.3167 H   0  0  0  0  0  0  0  0  0  0  0  0
   -5.5809    5.6008   -1.9933 H   0  0  0  0  0  0  0  0  0  0  0  0
   -7.1404    7.3295   -2.7996 H   0  0  0  0  0  0  0  0  0  0  0  0
   -9.5122    6.7593   -3.2546 H   0  0  0  0  0  0  0  0  0  0  0  0
  -10.3229    4.4578   -2.9023 H   0  0  0  0  0  0  0  0  0  0  0  0
   -9.8850    2.1032   -2.2255 H   0  0  0  0  0  0  0  0  0  0  0  0
   -8.3354    0.3766   -1.4209 H   0  0  0  0  0  0  0  0  0  0  0  0
   -2.6391   -2.6443   -1.9643 H   0  0  0  0  0  0  0  0  0  0  0  0
   -2.9408   -2.2921   -4.3458 H   0  0  0  0  0  0  0  0  0  0  0  0
   -4.5205   -0.5574   -5.1611 H   0  0  0  0  0  0  0  0  0  0  0  0
   -5.7766    0.7906   -3.5746 H   0  0  0  0  0  0  0  0  0  0  0  0
   -4.3299   -3.9305    0.3830 H   0  0  0  0  0  0  0  0  0  0  0  0
    0.7702   -5.2033    2.1486 H   0  0  0  0  0  0  0  0  0  0  0  0
   -0.0100   -7.5072    2.1541 H   0  0  0  0  0  0  0  0  0  0  0  0
   -2.3465   -8.0450    1.5077 H   0  0  0  0  0  0  0  0  0  0  0  0
   -3.8752   -6.2489    0.8312 H   0  0  0  0  0  0  0  0  0  0  0  0
    3.6733   -3.2183    0.2731 H   0  0  0  0  0  0  0  0  0  0  0  0
    4.9523   -4.3192   -1.4745 H   0  0  0  0  0  0  0  0  0  0  0  0
    6.4676   -2.9962   -2.9311 H   0  0  0  0  0  0  0  0  0  0  0  0
    6.6791   -0.5954   -2.6111 H   0  0  0  0  0  0  0  0  0  0  0  0
    4.7543    2.1803   -3.0858 H   0  0  0  0  0  0  0  0  0  0  0  0
    6.2199    3.5016   -4.5464 H   0  0  0  0  0  0  0  0  0  0  0  0
    8.4540    4.4763   -5.0419 H   0  0  0  0  0  0  0  0  0  0  0  0
   10.8151    4.8175   -4.4208 H   0  0  0  0  0  0  0  0  0  0  0  0
   11.7103    3.8264   -2.3297 H   0  0  0  0  0  0  0  0  0  0  0  0
   10.2479    2.4947   -0.8619 H   0  0  0  0  0  0  0  0  0  0  0  0
    8.0216    1.5218   -0.3648 H   0  0  0  0  0  0  0  0  0  0  0  0
    2.3494    1.0443    2.7533 H   0  0  0  0  0  0  0  0  0  0  0  0
    2.5950    3.4353    3.0907 H   0  0  0  0  0  0  0  0  0  0  0  0
    4.1473    4.7438    1.6640 H   0  0  0  0  0  0  0  0  0  0  0  0
    5.4244    3.6372   -0.0836 H   0  0  0  0  0  0  0  0  0  0  0  0
    4.1691   -1.4826    3.3578 H   0  0  0  0  0  0  0  0  0  0  0  0
   -0.8550   -3.6776    4.1881 H   0  0  0  0  0  0  0  0  0  0  0  0
   -0.0286   -4.2632    6.4000 H   0  0  0  0  0  0  0  0  0  0  0  0
    2.3005   -3.7114    7.0589 H   0  0  0  0  0  0  0  0  0  0  0  0
    3.7753   -2.5419    5.4823 H   0  0  0  0  0  0  0  0  0  0  0  0
  2  1  2  0  0  0  0
  2 41  1  0  0  0  0
  2  4  1  0  0  0  0
  3  2  1  0  0  0  0
  4  5  1  0  0  0  0
  5 38  2  0  0  0  0
  6 31  2  0  0  0  0
  6  5  1  0  0  0  0
  7  6  1  0  0  0  0
  7  8  2  0  0  0  0
  8  9  1  0  0  0  0
  9 75  1  0  0  0  0
  9 10  2  0  0  0  0
 10 76  1  0  0  0  0
 11 10  1  0  0  0  0
 11 77  1  0  0  0  0
 12 11  2  0  0  0  0
 13  8  1  0  0  0  0
 13 12  1  0  0  0  0
 14 13  2  0  0  0  0
 15 14  1  0  0  0  0
 16 79  1  0  0  0  0
 16 15  1  0  0  0  0
 17 16  2  0  0  0  0
 18 80  1  0  0  0  0
 18 17  1  0  0  0  0
 19 18  2  0  0  0  0
 20 21  2  0  0  0  0
 20 19  1  0  0  0  0
 21 22  1  0  0  0  0
 22 23  2  0  0  0  0
 22 17  1  0  0  0  0
 23 24  1  0  0  0  0
 24 85  1  0  0  0  0
 24 15  2  0  0  0  0
 25 26  1  0  0  0  0
 25 14  1  0  0  0  0
 26  7  1  0  0  0  0
 27 86  1  0  0  0  0
 27 26  2  0  0  0  0
 28 27  1  0  0  0  0
 29 28  2  0  0  0  0
 29 30  1  0  0  0  0
 30 25  2  0  0  0  0
 31 32  1  0  0  0  0
 32 37  2  0  0  0  0
 32 33  1  0  0  0  0
 33 38  1  0  0  0  0
 33 34  2  0  0  0  0
 34 91  1  0  0  0  0
 35 34  1  0  0  0  0
 35 92  1  0  0  0  0
 36 35  2  0  0  0  0
 37 36  1  0  0  0  0
 38 39  1  0  0  0  0
 39 69  2  0  0  0  0
 40 42  2  0  0  0  0
 40 39  1  0  0  0  0
 41 40  1  0  0  0  0
 42 67  1  0  0  0  0
 43 62  1  0  0  0  0
 43 42  1  0  0  0  0
 44 43  2  0  0  0  0
 45 44  1  0  0  0  0
 45 95  1  0  0  0  0
 46 45  2  0  0  0  0
 47 48  2  0  0  0  0
 47 46  1  0  0  0  0
 48 49  1  0  0  0  0
 49 50  2  0  0  0  0
 49 44  1  0  0  0  0
 50 61  1  0  0  0  0
 51 60  1  0  0  0  0
 51 50  1  0  0  0  0
 52 51  2  0  0  0  0
 53 54  2  0  0  0  0
 53 52  1  0  0  0  0
 54 59  1  0  0  0  0
 55 56  2  0  0  0  0
 55 54  1  0  0  0  0
 56 57  1  0  0  0  0
 57103  1  0  0  0  0
 57 58  2  0  0  0  0
 58104  1  0  0  0  0
 59 58  1  0  0  0  0
 59 60  2  0  0  0  0
 60105  1  0  0  0  0
 61 66  2  0  0  0  0
 61 62  1  0  0  0  0
 62 63  2  0  0  0  0
 63 64  1  0  0  0  0
 63106  1  0  0  0  0
 64107  1  0  0  0  0
 65108  1  0  0  0  0
 65 64  2  0  0  0  0
 66 65  1  0  0  0  0
 67110  1  0  0  0  0
 67 68  2  0  0  0  0
 68 73  1  0  0  0  0
 69 68  1  0  0  0  0
 69 70  1  0  0  0  0
 70 71  2  0  0  0  0
 71 72  1  0  0  0  0
 71112  1  0  0  0  0
 72113  1  0  0  0  0
 73114  1  0  0  0  0
 73 72  2  0  0  0  0
 74  3  1  0  0  0  0
 78 12  1  0  0  0  0
 81 19  1  0  0  0  0
 82 20  1  0  0  0  0
 83 21  1  0  0  0  0
 84 23  1  0  0  0  0
 87 28  1  0  0  0  0
 88 29  1  0  0  0  0
 89 30  1  0  0  0  0
 90 31  1  0  0  0  0
 93 36  1  0  0  0  0
 94 37  1  0  0  0  0
 96 46  1  0  0  0  0
 97 47  1  0  0  0  0
 98 48  1  0  0  0  0
 99 52  1  0  0  0  0
100 53  1  0  0  0  0
101 55  1  0  0  0  0
102 56  1  0  0  0  0
109 66  1  0  0  0  0
111 70  1  0  0  0  0
M  END
$$$$
