O=P1(O)OC2=C(C3=CC(C)=C(OC(C)C)C(C)=C3)C=C4C(C=CC=C4)=C2C5=C(O1)C(C6=CC(C)=C(OC(C)C)C(C)=C6)=CC7=C5C=CC=C7
 OpenBabel09032010373D

 90 96  0  0  0  0  0  0  0  0999 V2000
   -1.1421    1.6241   -0.5064 O   0  0  0  0  0  0  0  0  0  0  0  0
   -0.3625    0.4353   -0.0397 P   0  0  0  0  0  0  0  0  0  0  0  0
    0.4197    0.7385    1.3336 O   0  0  0  0  0  0  0  0  0  0  0  0
    0.8095   -0.0421   -1.0364 O   0  0  0  0  0  0  0  0  0  0  0  0
    1.4439   -1.2422   -0.7955 C   0  0  0  0  0  0  0  0  0  0  0  0
    2.7959   -1.1703   -0.4133 C   0  0  0  0  0  0  0  0  0  0  0  0
    3.4846    0.1134   -0.2029 C   0  0  0  0  0  0  0  0  0  0  0  0
    3.8947    0.4983    1.0822 C   0  0  0  0  0  0  0  0  0  0  0  0
    4.5314    1.7284    1.3120 C   0  0  0  0  0  0  0  0  0  0  0  0
    4.9222    2.0878    2.7176 C   0  0  0  0  0  0  0  0  0  0  0  0
    4.8095    2.5631    0.2185 C   0  0  0  0  0  0  0  0  0  0  0  0
    5.4479    3.7554    0.4537 O   0  0  0  0  0  0  0  0  0  0  0  0
    6.8146    3.7587    0.0007 C   0  0  0  0  0  0  0  0  0  0  0  0
    7.7472    3.4451    1.1672 C   0  0  0  0  0  0  0  0  0  0  0  0
    7.1072    5.1567   -0.5371 C   0  0  0  0  0  0  0  0  0  0  0  0
    4.3479    2.2356   -1.0676 C   0  0  0  0  0  0  0  0  0  0  0  0
    4.5137    3.1603   -2.2396 C   0  0  0  0  0  0  0  0  0  0  0  0
    3.7148    0.9976   -1.2662 C   0  0  0  0  0  0  0  0  0  0  0  0
    3.4798   -2.3694   -0.2098 C   0  0  0  0  0  0  0  0  0  0  0  0
    2.8406   -3.6057   -0.3414 C   0  0  0  0  0  0  0  0  0  0  0  0
    1.4694   -3.6673   -0.7109 C   0  0  0  0  0  0  0  0  0  0  0  0
    0.8814   -4.9586   -0.7130 C   0  0  0  0  0  0  0  0  0  0  0  0
    1.6114   -6.1193   -0.4421 C   0  0  0  0  0  0  0  0  0  0  0  0
    2.9594   -6.0304   -0.1366 C   0  0  0  0  0  0  0  0  0  0  0  0
    3.5668   -4.7798   -0.0787 C   0  0  0  0  0  0  0  0  0  0  0  0
    0.7408   -2.4559   -1.0029 C   0  0  0  0  0  0  0  0  0  0  0  0
   -0.6297   -2.4304   -1.4752 C   0  0  0  0  0  0  0  0  0  0  0  0
   -1.6018   -1.6652   -0.7814 C   0  0  0  0  0  0  0  0  0  0  0  0
   -1.2052   -0.8971    0.2924 O   0  0  0  0  0  0  0  0  0  0  0  0
   -2.9722   -1.6685   -1.0910 C   0  0  0  0  0  0  0  0  0  0  0  0
   -3.9562   -0.8935   -0.3207 C   0  0  0  0  0  0  0  0  0  0  0  0
   -4.2866   -1.2522    0.9937 C   0  0  0  0  0  0  0  0  0  0  0  0
   -5.2284   -0.5230    1.7377 C   0  0  0  0  0  0  0  0  0  0  0  0
   -5.5478   -0.9723    3.1350 C   0  0  0  0  0  0  0  0  0  0  0  0
   -5.8086    0.6197    1.1649 C   0  0  0  0  0  0  0  0  0  0  0  0
   -6.7037    1.3438    1.9136 O   0  0  0  0  0  0  0  0  0  0  0  0
   -6.1638    2.6001    2.3652 C   0  0  0  0  0  0  0  0  0  0  0  0
   -7.3020    3.6165    2.3324 C   0  0  0  0  0  0  0  0  0  0  0  0
   -5.6378    2.4560    3.7905 C   0  0  0  0  0  0  0  0  0  0  0  0
   -5.5526    0.9579   -0.1744 C   0  0  0  0  0  0  0  0  0  0  0  0
   -6.2404    2.1040   -0.8590 C   0  0  0  0  0  0  0  0  0  0  0  0
   -4.6053    0.2100   -0.8927 C   0  0  0  0  0  0  0  0  0  0  0  0
   -3.3921   -2.4412   -2.1750 C   0  0  0  0  0  0  0  0  0  0  0  0
   -2.4834   -3.1649   -2.9528 C   0  0  0  0  0  0  0  0  0  0  0  0
   -1.0994   -3.1540   -2.6313 C   0  0  0  0  0  0  0  0  0  0  0  0
   -0.2419   -3.8359   -3.5324 C   0  0  0  0  0  0  0  0  0  0  0  0
   -0.7217   -4.5405   -4.6397 C   0  0  0  0  0  0  0  0  0  0  0  0
   -2.0820   -4.5735   -4.8993 C   0  0  0  0  0  0  0  0  0  0  0  0
   -2.9556   -3.8836   -4.0641 C   0  0  0  0  0  0  0  0  0  0  0  0
    0.8363    1.6191    1.2942 H   0  0  0  0  0  0  0  0  0  0  0  0
    3.6926   -0.1636    1.9242 H   0  0  0  0  0  0  0  0  0  0  0  0
    5.8837    1.6313    2.9700 H   0  0  0  0  0  0  0  0  0  0  0  0
    4.1690    1.7300    3.4283 H   0  0  0  0  0  0  0  0  0  0  0  0
    4.9937    3.1709    2.8558 H   0  0  0  0  0  0  0  0  0  0  0  0
    6.9890    3.0306   -0.8013 H   0  0  0  0  0  0  0  0  0  0  0  0
    7.6113    2.4123    1.5016 H   0  0  0  0  0  0  0  0  0  0  0  0
    7.5364    4.0912    2.0262 H   0  0  0  0  0  0  0  0  0  0  0  0
    8.7965    3.5684    0.8812 H   0  0  0  0  0  0  0  0  0  0  0  0
    6.9387    5.9171    0.2337 H   0  0  0  0  0  0  0  0  0  0  0  0
    8.1396    5.2389   -0.8909 H   0  0  0  0  0  0  0  0  0  0  0  0
    6.4370    5.3990   -1.3680 H   0  0  0  0  0  0  0  0  0  0  0  0
    4.3524    4.2008   -1.9408 H   0  0  0  0  0  0  0  0  0  0  0  0
    5.5127    3.0540   -2.6721 H   0  0  0  0  0  0  0  0  0  0  0  0
    3.7778    2.9414   -3.0211 H   0  0  0  0  0  0  0  0  0  0  0  0
    3.3772    0.7231   -2.2653 H   0  0  0  0  0  0  0  0  0  0  0  0
    4.5299   -2.3321    0.0790 H   0  0  0  0  0  0  0  0  0  0  0  0
   -0.1807   -5.0819   -0.9176 H   0  0  0  0  0  0  0  0  0  0  0  0
    1.1176   -7.0872   -0.4659 H   0  0  0  0  0  0  0  0  0  0  0  0
    3.5339   -6.9279    0.0756 H   0  0  0  0  0  0  0  0  0  0  0  0
    4.6204   -4.7284    0.1906 H   0  0  0  0  0  0  0  0  0  0  0  0
   -3.8053   -2.1189    1.4449 H   0  0  0  0  0  0  0  0  0  0  0  0
   -4.7990   -0.5900    3.8347 H   0  0  0  0  0  0  0  0  0  0  0  0
   -5.5534   -2.0663    3.1937 H   0  0  0  0  0  0  0  0  0  0  0  0
   -6.5391   -0.6364    3.4542 H   0  0  0  0  0  0  0  0  0  0  0  0
   -5.3527    2.9613    1.7206 H   0  0  0  0  0  0  0  0  0  0  0  0
   -7.6966    3.7220    1.3168 H   0  0  0  0  0  0  0  0  0  0  0  0
   -8.1379    3.2902    2.9613 H   0  0  0  0  0  0  0  0  0  0  0  0
   -6.9673    4.5999    2.6766 H   0  0  0  0  0  0  0  0  0  0  0  0
   -5.3436    3.4252    4.2054 H   0  0  0  0  0  0  0  0  0  0  0  0
   -6.3906    2.0045    4.4457 H   0  0  0  0  0  0  0  0  0  0  0  0
   -4.7600    1.8034    3.8126 H   0  0  0  0  0  0  0  0  0  0  0  0
   -6.2375    1.9712   -1.9465 H   0  0  0  0  0  0  0  0  0  0  0  0
   -7.2898    2.1671   -0.5548 H   0  0  0  0  0  0  0  0  0  0  0  0
   -5.7350    3.0462   -0.6286 H   0  0  0  0  0  0  0  0  0  0  0  0
   -4.3653    0.4952   -1.9163 H   0  0  0  0  0  0  0  0  0  0  0  0
   -4.4528   -2.4593   -2.4247 H   0  0  0  0  0  0  0  0  0  0  0  0
    0.8371   -3.8173   -3.3890 H   0  0  0  0  0  0  0  0  0  0  0  0
   -0.0260   -5.0554   -5.2970 H   0  0  0  0  0  0  0  0  0  0  0  0
   -2.4632   -5.1184   -5.7585 H   0  0  0  0  0  0  0  0  0  0  0  0
   -4.0186   -3.9004   -4.2987 H   0  0  0  0  0  0  0  0  0  0  0  0
  1  2  2  0  0  0  0
  2 29  1  0  0  0  0
  2  3  1  0  0  0  0
  4  5  1  0  0  0  0
  4  2  1  0  0  0  0
  5  6  1  0  0  0  0
  6 19  2  0  0  0  0
  6  7  1  0  0  0  0
  7  8  2  0  0  0  0
  8  9  1  0  0  0  0
  8 51  1  0  0  0  0
  9 10  1  0  0  0  0
 10 54  1  0  0  0  0
 10 52  1  0  0  0  0
 10 53  1  0  0  0  0
 11 12  1  0  0  0  0
 11  9  2  0  0  0  0
 13 12  1  0  0  0  0
 13 14  1  0  0  0  0
 14 56  1  0  0  0  0
 14 57  1  0  0  0  0
 15 13  1  0  0  0  0
 15 59  1  0  0  0  0
 16 11  1  0  0  0  0
 17 62  1  0  0  0  0
 17 16  1  0  0  0  0
 18 16  2  0  0  0  0
 18  7  1  0  0  0  0
 19 66  1  0  0  0  0
 20 19  1  0  0  0  0
 20 25  2  0  0  0  0
 21 20  1  0  0  0  0
 22 21  2  0  0  0  0
 22 23  1  0  0  0  0
 23 24  2  0  0  0  0
 24 25  1  0  0  0  0
 24 69  1  0  0  0  0
 25 70  1  0  0  0  0
 26  5  2  0  0  0  0
 26 21  1  0  0  0  0
 27 26  1  0  0  0  0
 27 28  2  0  0  0  0
 28 29  1  0  0  0  0
 30 28  1  0  0  0  0
 30 31  1  0  0  0  0
 31 32  1  0  0  0  0
 32 71  1  0  0  0  0
 32 33  2  0  0  0  0
 33 34  1  0  0  0  0
 34 73  1  0  0  0  0
 34 74  1  0  0  0  0
 34 72  1  0  0  0  0
 35 33  1  0  0  0  0
 35 36  1  0  0  0  0
 36 37  1  0  0  0  0
 37 39  1  0  0  0  0
 38 37  1  0  0  0  0
 38 78  1  0  0  0  0
 38 77  1  0  0  0  0
 39 81  1  0  0  0  0
 39 79  1  0  0  0  0
 39 80  1  0  0  0  0
 40 35  2  0  0  0  0
 41 84  1  0  0  0  0
 41 83  1  0  0  0  0
 41 40  1  0  0  0  0
 42 31  2  0  0  0  0
 42 40  1  0  0  0  0
 43 30  2  0  0  0  0
 44 45  1  0  0  0  0
 44 43  1  0  0  0  0
 45 27  1  0  0  0  0
 46 87  1  0  0  0  0
 46 45  2  0  0  0  0
 47 46  1  0  0  0  0
 48 47  2  0  0  0  0
 48 49  1  0  0  0  0
 49 44  2  0  0  0  0
 50  3  1  0  0  0  0
 55 13  1  0  0  0  0
 58 14  1  0  0  0  0
 60 15  1  0  0  0  0
 61 15  1  0  0  0  0
 63 17  1  0  0  0  0
 64 17  1  0  0  0  0
 65 18  1  0  0  0  0
 67 22  1  0  0  0  0
 68 23  1  0  0  0  0
 75 37  1  0  0  0  0
 76 38  1  0  0  0  0
 82 41  1  0  0  0  0
 85 42  1  0  0  0  0
 86 43  1  0  0  0  0
 88 47  1  0  0  0  0
 89 48  1  0  0  0  0
 90 49  1  0  0  0  0
M  END
$$$$
