O=P1(O)OC2=C(C3=C(C4CCCCC4)C=C(C5CCCCC5)C=C3C6CCCCC6)C=C7C(C=CC=C7)=C2C8=C(O1)[C@@]([C@@]9=C(C%10CCCCC%10)C=C(C%11CCCCC%11)C=C9C%12CCCCC%12)=CC%13=C8C=CC=C%13
 OpenBabel09032010373D

154166  0  0  0  0  0  0  0  0999 V2000
    0.1690   -0.4331    1.8322 O   0  0  0  0  0  0  0  0  0  0  0  0
   -0.0582    0.1344    0.4675 P   0  0  0  0  0  0  0  0  0  0  0  0
   -0.5432    1.6641    0.5502 O   0  0  0  0  0  0  0  0  0  0  0  0
    1.2124    0.2010   -0.5161 O   0  0  0  0  0  0  0  0  0  0  0  0
    1.5781   -0.9535   -1.1683 C   0  0  0  0  0  0  0  0  0  0  0  0
    2.8257   -1.5096   -0.8306 C   0  0  0  0  0  0  0  0  0  0  0  0
    3.7255   -0.8974    0.1735 C   0  0  0  0  0  0  0  0  0  0  0  0
    4.5610    0.2054   -0.1858 C   0  0  0  0  0  0  0  0  0  0  0  0
    4.5525    0.8030   -1.6022 C   0  0  0  0  0  0  0  0  0  0  0  0
    5.9119    0.7211   -2.3283 C   0  0  0  0  0  0  0  0  0  0  0  0
    6.8358    1.9227   -2.1451 C   0  0  0  0  0  0  0  0  0  0  0  0
    6.1098    3.2449   -2.3520 C   0  0  0  0  0  0  0  0  0  0  0  0
    4.8840    3.3644   -1.4568 C   0  0  0  0  0  0  0  0  0  0  0  0
    3.9147    2.2044   -1.6645 C   0  0  0  0  0  0  0  0  0  0  0  0
    5.4113    0.7556    0.7906 C   0  0  0  0  0  0  0  0  0  0  0  0
    5.4831    0.2476    2.0909 C   0  0  0  0  0  0  0  0  0  0  0  0
    6.4301    0.8741    3.0993 C   0  0  0  0  0  0  0  0  0  0  0  0
    5.7194    1.3183    4.3865 C   0  0  0  0  0  0  0  0  0  0  0  0
    6.6605    2.0987    5.3092 C   0  0  0  0  0  0  0  0  0  0  0  0
    8.1249    1.6706    5.1951 C   0  0  0  0  0  0  0  0  0  0  0  0
    8.2606    0.2130    4.7773 C   0  0  0  0  0  0  0  0  0  0  0  0
    7.6208   -0.0557    3.4118 C   0  0  0  0  0  0  0  0  0  0  0  0
    4.6780   -0.8436    2.4221 C   0  0  0  0  0  0  0  0  0  0  0  0
    3.7865   -1.4215    1.4984 C   0  0  0  0  0  0  0  0  0  0  0  0
    2.9401   -2.6186    1.9523 C   0  0  0  0  0  0  0  0  0  0  0  0
    3.7869   -3.9084    1.9323 C   0  0  0  0  0  0  0  0  0  0  0  0
    3.0639   -5.0510    2.6353 C   0  0  0  0  0  0  0  0  0  0  0  0
    2.8002   -4.7490    4.1101 C   0  0  0  0  0  0  0  0  0  0  0  0
    2.8113   -3.2580    4.4425 C   0  0  0  0  0  0  0  0  0  0  0  0
    2.2269   -2.4124    3.3138 C   0  0  0  0  0  0  0  0  0  0  0  0
    3.2359   -2.6606   -1.5074 C   0  0  0  0  0  0  0  0  0  0  0  0
    2.4145   -3.2829   -2.4489 C   0  0  0  0  0  0  0  0  0  0  0  0
    1.1609   -2.7093   -2.7886 C   0  0  0  0  0  0  0  0  0  0  0  0
    0.3545   -3.4559   -3.6854 C   0  0  0  0  0  0  0  0  0  0  0  0
    0.7816   -4.6554   -4.2617 C   0  0  0  0  0  0  0  0  0  0  0  0
    2.0315   -5.1639   -3.9480 C   0  0  0  0  0  0  0  0  0  0  0  0
    2.8399   -4.4837   -3.0420 C   0  0  0  0  0  0  0  0  0  0  0  0
    0.7480   -1.4591   -2.1991 C   0  0  0  0  0  0  0  0  0  0  0  0
   -0.4173   -0.7124   -2.6348 C   0  0  0  0  0  0  0  0  0  0  0  0
   -1.3985   -0.2907   -1.7029 C   0  0  0  0  0  0  0  0  0  0  0  0
   -1.2333   -0.5756   -0.3675 O   0  0  0  0  0  0  0  0  0  0  0  0
   -2.6225    0.3028   -2.0695 C   0  0  0  0  0  0  0  0  0  0  0  0
   -3.6548    0.6841   -1.0759 C   0  0  0  0  0  0  0  0  0  0  0  0
   -4.4809   -0.3126   -0.4815 C   0  0  0  0  0  0  0  0  0  0  0  0
   -4.3684   -1.7984   -0.8357 C   0  0  0  0  0  0  0  0  0  0  0  0
   -5.6663   -2.3448   -1.4551 C   0  0  0  0  0  0  0  0  0  0  0  0
   -5.4848   -3.7760   -1.9704 C   0  0  0  0  0  0  0  0  0  0  0  0
   -4.4695   -4.5918   -1.1677 C   0  0  0  0  0  0  0  0  0  0  0  0
   -4.3725   -4.1171    0.2754 C   0  0  0  0  0  0  0  0  0  0  0  0
   -3.9210   -2.6563    0.3691 C   0  0  0  0  0  0  0  0  0  0  0  0
   -5.4693    0.0740    0.4464 C   0  0  0  0  0  0  0  0  0  0  0  0
   -5.6882    1.4117    0.7816 C   0  0  0  0  0  0  0  0  0  0  0  0
   -6.7735    1.8227    1.7619 C   0  0  0  0  0  0  0  0  0  0  0  0
   -6.5365    1.2298    3.1621 C   0  0  0  0  0  0  0  0  0  0  0  0
   -7.6291    1.6565    4.1409 C   0  0  0  0  0  0  0  0  0  0  0  0
   -9.0200    1.3082    3.6187 C   0  0  0  0  0  0  0  0  0  0  0  0
   -9.2628    1.8910    2.2295 C   0  0  0  0  0  0  0  0  0  0  0  0
   -8.1772    1.4662    1.2421 C   0  0  0  0  0  0  0  0  0  0  0  0
   -4.8911    2.3859    0.1739 C   0  0  0  0  0  0  0  0  0  0  0  0
   -3.8628    2.0557   -0.7321 C   0  0  0  0  0  0  0  0  0  0  0  0
   -3.0570    3.1914   -1.3811 C   0  0  0  0  0  0  0  0  0  0  0  0
   -3.8293    3.7991   -2.5773 C   0  0  0  0  0  0  0  0  0  0  0  0
   -4.3363    5.2116   -2.3044 C   0  0  0  0  0  0  0  0  0  0  0  0
   -3.2005    6.1695   -1.9456 C   0  0  0  0  0  0  0  0  0  0  0  0
   -2.0759    5.5107   -1.1465 C   0  0  0  0  0  0  0  0  0  0  0  0
   -2.5641    4.2775   -0.3936 C   0  0  0  0  0  0  0  0  0  0  0  0
   -2.8673    0.5105   -3.4285 C   0  0  0  0  0  0  0  0  0  0  0  0
   -1.9039    0.2166   -4.3944 C   0  0  0  0  0  0  0  0  0  0  0  0
   -0.6667   -0.3670   -4.0132 C   0  0  0  0  0  0  0  0  0  0  0  0
    0.2891   -0.5323   -5.0487 C   0  0  0  0  0  0  0  0  0  0  0  0
    0.0202   -0.2098   -6.3815 C   0  0  0  0  0  0  0  0  0  0  0  0
   -1.2160    0.3095   -6.7283 C   0  0  0  0  0  0  0  0  0  0  0  0
   -2.1696    0.5265   -5.7386 C   0  0  0  0  0  0  0  0  0  0  0  0
   -1.1928    1.7634    1.2695 H   0  0  0  0  0  0  0  0  0  0  0  0
    3.8989    0.1735   -2.2142 H   0  0  0  0  0  0  0  0  0  0  0  0
    5.7044    0.6416   -3.4049 H   0  0  0  0  0  0  0  0  0  0  0  0
    6.4430   -0.1996   -2.0572 H   0  0  0  0  0  0  0  0  0  0  0  0
    7.2982    1.9034   -1.1538 H   0  0  0  0  0  0  0  0  0  0  0  0
    7.6632    1.8502   -2.8613 H   0  0  0  0  0  0  0  0  0  0  0  0
    6.7953    4.0758   -2.1502 H   0  0  0  0  0  0  0  0  0  0  0  0
    5.8049    3.3332   -3.4022 H   0  0  0  0  0  0  0  0  0  0  0  0
    5.1908    3.4230   -0.4077 H   0  0  0  0  0  0  0  0  0  0  0  0
    4.3677    4.3067   -1.6757 H   0  0  0  0  0  0  0  0  0  0  0  0
    3.0841    2.2890   -0.9536 H   0  0  0  0  0  0  0  0  0  0  0  0
    3.4716    2.3253   -2.6629 H   0  0  0  0  0  0  0  0  0  0  0  0
    6.0391    1.6037    0.5426 H   0  0  0  0  0  0  0  0  0  0  0  0
    6.8433    1.7870    2.6459 H   0  0  0  0  0  0  0  0  0  0  0  0
    5.3414    0.4433    4.9310 H   0  0  0  0  0  0  0  0  0  0  0  0
    4.8430    1.9368    4.1566 H   0  0  0  0  0  0  0  0  0  0  0  0
    6.3177    1.9765    6.3439 H   0  0  0  0  0  0  0  0  0  0  0  0
    6.5902    3.1710    5.0897 H   0  0  0  0  0  0  0  0  0  0  0  0
    8.6322    2.3042    4.4566 H   0  0  0  0  0  0  0  0  0  0  0  0
    8.6327    1.8409    6.1512 H   0  0  0  0  0  0  0  0  0  0  0  0
    7.7816   -0.4226    5.5328 H   0  0  0  0  0  0  0  0  0  0  0  0
    9.3170   -0.0772    4.7503 H   0  0  0  0  0  0  0  0  0  0  0  0
    8.3755    0.0728    2.6245 H   0  0  0  0  0  0  0  0  0  0  0  0
    7.3340   -1.1140    3.3730 H   0  0  0  0  0  0  0  0  0  0  0  0
    4.7469   -1.2558    3.4251 H   0  0  0  0  0  0  0  0  0  0  0  0
    2.1210   -2.7542    1.2363 H   0  0  0  0  0  0  0  0  0  0  0  0
    4.0045   -4.1987    0.8986 H   0  0  0  0  0  0  0  0  0  0  0  0
    4.7604   -3.7495    2.4142 H   0  0  0  0  0  0  0  0  0  0  0  0
    3.6444   -5.9765    2.5480 H   0  0  0  0  0  0  0  0  0  0  0  0
    2.1089   -5.2364    2.1274 H   0  0  0  0  0  0  0  0  0  0  0  0
    3.5512   -5.2522    4.7311 H   0  0  0  0  0  0  0  0  0  0  0  0
    1.8336   -5.1847    4.3913 H   0  0  0  0  0  0  0  0  0  0  0  0
    2.2487   -3.0869    5.3676 H   0  0  0  0  0  0  0  0  0  0  0  0
    3.8406   -2.9427    4.6480 H   0  0  0  0  0  0  0  0  0  0  0  0
    2.2077   -1.3567    3.6080 H   0  0  0  0  0  0  0  0  0  0  0  0
    1.1747   -2.7069    3.1967 H   0  0  0  0  0  0  0  0  0  0  0  0
    4.2092   -3.0875   -1.2680 H   0  0  0  0  0  0  0  0  0  0  0  0
   -0.6457   -3.1121   -3.9440 H   0  0  0  0  0  0  0  0  0  0  0  0
    0.1302   -5.1870   -4.9501 H   0  0  0  0  0  0  0  0  0  0  0  0
    2.3720   -6.0954   -4.3917 H   0  0  0  0  0  0  0  0  0  0  0  0
    3.8085   -4.9109   -2.7883 H   0  0  0  0  0  0  0  0  0  0  0  0
   -3.6049   -1.9323   -1.6090 H   0  0  0  0  0  0  0  0  0  0  0  0
   -6.0051   -1.7050   -2.2795 H   0  0  0  0  0  0  0  0  0  0  0  0
   -6.4740   -2.3401   -0.7120 H   0  0  0  0  0  0  0  0  0  0  0  0
   -6.4591   -4.2794   -1.9574 H   0  0  0  0  0  0  0  0  0  0  0  0
   -5.1668   -3.7546   -3.0199 H   0  0  0  0  0  0  0  0  0  0  0  0
   -4.7421   -5.6527   -1.2016 H   0  0  0  0  0  0  0  0  0  0  0  0
   -3.4822   -4.5092   -1.6398 H   0  0  0  0  0  0  0  0  0  0  0  0
   -3.6776   -4.7516    0.8372 H   0  0  0  0  0  0  0  0  0  0  0  0
   -5.3529   -4.2253    0.7564 H   0  0  0  0  0  0  0  0  0  0  0  0
   -2.8259   -2.6234    0.4312 H   0  0  0  0  0  0  0  0  0  0  0  0
   -4.2780   -2.2500    1.3228 H   0  0  0  0  0  0  0  0  0  0  0  0
   -6.0937   -0.6915    0.9038 H   0  0  0  0  0  0  0  0  0  0  0  0
   -6.7387    2.9166    1.8689 H   0  0  0  0  0  0  0  0  0  0  0  0
   -6.5101    0.1336    3.1195 H   0  0  0  0  0  0  0  0  0  0  0  0
   -5.5600    1.5505    3.5458 H   0  0  0  0  0  0  0  0  0  0  0  0
   -7.4665    1.1694    5.1090 H   0  0  0  0  0  0  0  0  0  0  0  0
   -7.5633    2.7379    4.3127 H   0  0  0  0  0  0  0  0  0  0  0  0
   -9.7792    1.6843    4.3137 H   0  0  0  0  0  0  0  0  0  0  0  0
   -9.1329    0.2177    3.5814 H   0  0  0  0  0  0  0  0  0  0  0  0
   -9.2907    2.9858    2.2923 H   0  0  0  0  0  0  0  0  0  0  0  0
  -10.2427    1.5677    1.8605 H   0  0  0  0  0  0  0  0  0  0  0  0
   -8.3553    1.9536    0.2754 H   0  0  0  0  0  0  0  0  0  0  0  0
   -8.2621    0.3862    1.0671 H   0  0  0  0  0  0  0  0  0  0  0  0
   -5.0951    3.4296    0.4013 H   0  0  0  0  0  0  0  0  0  0  0  0
   -2.1358    2.7601   -1.7913 H   0  0  0  0  0  0  0  0  0  0  0  0
   -3.1540    3.8413   -3.4426 H   0  0  0  0  0  0  0  0  0  0  0  0
   -4.6702    3.1644   -2.8816 H   0  0  0  0  0  0  0  0  0  0  0  0
   -4.8734    5.5943   -3.1798 H   0  0  0  0  0  0  0  0  0  0  0  0
   -5.0639    5.1838   -1.4840 H   0  0  0  0  0  0  0  0  0  0  0  0
   -3.6173    7.0093   -1.3764 H   0  0  0  0  0  0  0  0  0  0  0  0
   -2.7761    6.6024   -2.8597 H   0  0  0  0  0  0  0  0  0  0  0  0
   -1.2663    5.2201   -1.8279 H   0  0  0  0  0  0  0  0  0  0  0  0
   -1.6467    6.2374   -0.4474 H   0  0  0  0  0  0  0  0  0  0  0  0
   -3.3419    4.5933    0.3089 H   0  0  0  0  0  0  0  0  0  0  0  0
   -1.7512    3.8790    0.2211 H   0  0  0  0  0  0  0  0  0  0  0  0
   -3.8212    0.9425   -3.7283 H   0  0  0  0  0  0  0  0  0  0  0  0
    1.2854   -0.9097   -4.8250 H   0  0  0  0  0  0  0  0  0  0  0  0
    0.7838   -0.3621   -7.1396 H   0  0  0  0  0  0  0  0  0  0  0  0
   -1.4334    0.5644   -7.7613 H   0  0  0  0  0  0  0  0  0  0  0  0
   -3.1254    0.9609   -6.0261 H   0  0  0  0  0  0  0  0  0  0  0  0
  2  3  1  0  0  0  0
  2  1  2  0  0  0  0
  3 74  1  0  0  0  0
  4  2  1  0  0  0  0
  5  6  1  0  0  0  0
  5  4  1  0  0  0  0
  6  7  1  0  0  0  0
  7 24  1  0  0  0  0
  8  7  2  0  0  0  0
  8 15  1  0  0  0  0
  9  8  1  0  0  0  0
 10 11  1  0  0  0  0
 10 77  1  0  0  0  0
 10  9  1  0  0  0  0
 11 78  1  0  0  0  0
 12 80  1  0  0  0  0
 12 11  1  0  0  0  0
 12 13  1  0  0  0  0
 13 82  1  0  0  0  0
 14  9  1  0  0  0  0
 14 13  1  0  0  0  0
 14 84  1  0  0  0  0
 15 16  2  0  0  0  0
 16 23  1  0  0  0  0
 16 17  1  0  0  0  0
 17 22  1  0  0  0  0
 17 18  1  0  0  0  0
 18 88  1  0  0  0  0
 18 19  1  0  0  0  0
 19 90  1  0  0  0  0
 20 19  1  0  0  0  0
 20 93  1  0  0  0  0
 21 20  1  0  0  0  0
 21 94  1  0  0  0  0
 22 21  1  0  0  0  0
 23 98  1  0  0  0  0
 24 25  1  0  0  0  0
 24 23  2  0  0  0  0
 25 30  1  0  0  0  0
 26 25  1  0  0  0  0
 26101  1  0  0  0  0
 26 27  1  0  0  0  0
 27 28  1  0  0  0  0
 28105  1  0  0  0  0
 28 29  1  0  0  0  0
 28104  1  0  0  0  0
 29107  1  0  0  0  0
 29106  1  0  0  0  0
 30108  1  0  0  0  0
 30 29  1  0  0  0  0
 31110  1  0  0  0  0
 31  6  2  0  0  0  0
 32 31  1  0  0  0  0
 33 32  1  0  0  0  0
 33 38  1  0  0  0  0
 34 33  2  0  0  0  0
 35 36  2  0  0  0  0
 35 34  1  0  0  0  0
 36 37  1  0  0  0  0
 37114  1  0  0  0  0
 37 32  2  0  0  0  0
 38  5  2  0  0  0  0
 39 38  1  0  0  0  0
 39 40  2  0  0  0  0
 40 41  1  0  0  0  0
 41  2  1  0  0  0  0
 42 40  1  0  0  0  0
 42 43  1  0  0  0  0
 43 60  2  0  0  0  0
 43 44  1  0  0  0  0
 44 51  2  0  0  0  0
 45 44  1  0  0  0  0
 45 50  1  0  0  0  0
 46 45  1  0  0  0  0
 46117  1  0  0  0  0
 47118  1  0  0  0  0
 47 46  1  0  0  0  0
 47 48  1  0  0  0  0
 48 49  1  0  0  0  0
 49 50  1  0  0  0  0
 49123  1  0  0  0  0
 49122  1  0  0  0  0
 50124  1  0  0  0  0
 50125  1  0  0  0  0
 51 52  1  0  0  0  0
 51126  1  0  0  0  0
 52 53  1  0  0  0  0
 53127  1  0  0  0  0
 53 54  1  0  0  0  0
 54129  1  0  0  0  0
 54 55  1  0  0  0  0
 55131  1  0  0  0  0
 55130  1  0  0  0  0
 56 55  1  0  0  0  0
 56132  1  0  0  0  0
 57134  1  0  0  0  0
 57 56  1  0  0  0  0
 58 53  1  0  0  0  0
 58 57  1  0  0  0  0
 59138  1  0  0  0  0
 59 52  2  0  0  0  0
 60 59  1  0  0  0  0
 61 60  1  0  0  0  0
 61 66  1  0  0  0  0
 62 63  1  0  0  0  0
 62 61  1  0  0  0  0
 63 64  1  0  0  0  0
 63143  1  0  0  0  0
 64144  1  0  0  0  0
 64 65  1  0  0  0  0
 65147  1  0  0  0  0
 65 66  1  0  0  0  0
 66149  1  0  0  0  0
 66148  1  0  0  0  0
 67 42  2  0  0  0  0
 68 69  1  0  0  0  0
 68 67  1  0  0  0  0
 69 39  1  0  0  0  0
 70151  1  0  0  0  0
 70 69  2  0  0  0  0
 71 70  1  0  0  0  0
 72 71  2  0  0  0  0
 72 73  1  0  0  0  0
 73 68  2  0  0  0  0
 75  9  1  0  0  0  0
 76 10  1  0  0  0  0
 79 11  1  0  0  0  0
 81 12  1  0  0  0  0
 83 13  1  0  0  0  0
 85 14  1  0  0  0  0
 86 15  1  0  0  0  0
 87 17  1  0  0  0  0
 89 18  1  0  0  0  0
 91 19  1  0  0  0  0
 92 20  1  0  0  0  0
 95 21  1  0  0  0  0
 96 22  1  0  0  0  0
 97 22  1  0  0  0  0
 99 25  1  0  0  0  0
100 26  1  0  0  0  0
102 27  1  0  0  0  0
103 27  1  0  0  0  0
109 30  1  0  0  0  0
111 34  1  0  0  0  0
112 35  1  0  0  0  0
113 36  1  0  0  0  0
115 45  1  0  0  0  0
116 46  1  0  0  0  0
119 47  1  0  0  0  0
120 48  1  0  0  0  0
121 48  1  0  0  0  0
128 54  1  0  0  0  0
133 56  1  0  0  0  0
135 57  1  0  0  0  0
136 58  1  0  0  0  0
137 58  1  0  0  0  0
139 61  1  0  0  0  0
140 62  1  0  0  0  0
141 62  1  0  0  0  0
142 63  1  0  0  0  0
145 64  1  0  0  0  0
146 65  1  0  0  0  0
150 67  1  0  0  0  0
152 71  1  0  0  0  0
153 72  1  0  0  0  0
154 73  1  0  0  0  0
M  END
$$$$
