O=P1(O)OC2=C(C3=C(OCC)C=CC(C)=C3)C=C4C(C=CC=C4)=C2C5=C(O1)C(C6=CC(C)=CC=C6OCC)=CC7=C5C=CC=C7
 OpenBabel09032010383D

 78 84  0  0  0  0  0  0  0  0999 V2000
    0.4488    0.4029   -2.7291 O   0  0  0  0  0  0  0  0  0  0  0  0
   -0.1610   -0.4142   -1.6329 P   0  0  0  0  0  0  0  0  0  0  0  0
   -1.1572   -1.5268   -2.2352 O   0  0  0  0  0  0  0  0  0  0  0  0
    0.8482   -1.2735   -0.7190 O   0  0  0  0  0  0  0  0  0  0  0  0
    1.5059   -0.6042    0.2899 C   0  0  0  0  0  0  0  0  0  0  0  0
    2.8932   -0.4312    0.1462 C   0  0  0  0  0  0  0  0  0  0  0  0
    3.6435   -0.9543   -1.0115 C   0  0  0  0  0  0  0  0  0  0  0  0
    4.2589   -0.1061   -1.9494 C   0  0  0  0  0  0  0  0  0  0  0  0
    4.1609    1.2515   -1.7664 O   0  0  0  0  0  0  0  0  0  0  0  0
    3.6198    1.9206   -2.9104 C   0  0  0  0  0  0  0  0  0  0  0  0
    2.9181    3.1760   -2.4260 C   0  0  0  0  0  0  0  0  0  0  0  0
    5.0069   -0.6306   -3.0082 C   0  0  0  0  0  0  0  0  0  0  0  0
    5.1176   -2.0116   -3.1705 C   0  0  0  0  0  0  0  0  0  0  0  0
    4.4845   -2.8802   -2.2771 C   0  0  0  0  0  0  0  0  0  0  0  0
    4.6250   -4.3657   -2.4281 C   0  0  0  0  0  0  0  0  0  0  0  0
    3.7669   -2.3442   -1.1974 C   0  0  0  0  0  0  0  0  0  0  0  0
    3.5695    0.2546    1.1579 C   0  0  0  0  0  0  0  0  0  0  0  0
    2.8964    0.7804    2.2642 C   0  0  0  0  0  0  0  0  0  0  0  0
    1.4966    0.5888    2.4042 C   0  0  0  0  0  0  0  0  0  0  0  0
    0.8828    1.2335    3.5086 C   0  0  0  0  0  0  0  0  0  0  0  0
    1.6099    1.9654    4.4513 C   0  0  0  0  0  0  0  0  0  0  0  0
    2.9821    2.0957    4.3129 C   0  0  0  0  0  0  0  0  0  0  0  0
    3.6191    1.5122    3.2216 C   0  0  0  0  0  0  0  0  0  0  0  0
    0.7695   -0.1793    1.4251 C   0  0  0  0  0  0  0  0  0  0  0  0
   -0.6290   -0.5323    1.5589 C   0  0  0  0  0  0  0  0  0  0  0  0
   -1.5470   -0.2061    0.5312 C   0  0  0  0  0  0  0  0  0  0  0  0
   -1.0961    0.4105   -0.6153 O   0  0  0  0  0  0  0  0  0  0  0  0
   -2.9354   -0.4038    0.6323 C   0  0  0  0  0  0  0  0  0  0  0  0
   -3.8612   -0.0048   -0.4399 C   0  0  0  0  0  0  0  0  0  0  0  0
   -4.3562   -0.9729   -1.3325 C   0  0  0  0  0  0  0  0  0  0  0  0
   -5.2243   -0.6257   -2.3775 C   0  0  0  0  0  0  0  0  0  0  0  0
   -5.7673   -1.6821   -3.2940 C   0  0  0  0  0  0  0  0  0  0  0  0
   -5.6297    0.7064   -2.5108 C   0  0  0  0  0  0  0  0  0  0  0  0
   -5.1533    1.6810   -1.6330 C   0  0  0  0  0  0  0  0  0  0  0  0
   -4.2623    1.3301   -0.6161 C   0  0  0  0  0  0  0  0  0  0  0  0
   -3.8254    2.2738    0.2800 O   0  0  0  0  0  0  0  0  0  0  0  0
   -3.0504    3.2960   -0.3554 C   0  0  0  0  0  0  0  0  0  0  0  0
   -2.1519    3.9211    0.6962 C   0  0  0  0  0  0  0  0  0  0  0  0
   -3.4325   -0.9973    1.7927 C   0  0  0  0  0  0  0  0  0  0  0  0
   -2.5803   -1.4140    2.8185 C   0  0  0  0  0  0  0  0  0  0  0  0
   -1.1782   -1.2091    2.7093 C   0  0  0  0  0  0  0  0  0  0  0  0
   -0.3852   -1.7487    3.7542 C   0  0  0  0  0  0  0  0  0  0  0  0
   -0.9390   -2.3887    4.8667 C   0  0  0  0  0  0  0  0  0  0  0  0
   -2.3134   -2.5299    4.9678 C   0  0  0  0  0  0  0  0  0  0  0  0
   -3.1275   -2.0508    3.9457 C   0  0  0  0  0  0  0  0  0  0  0  0
   -1.6431   -1.1544   -2.9931 H   0  0  0  0  0  0  0  0  0  0  0  0
    4.4380    2.1959   -3.5850 H   0  0  0  0  0  0  0  0  0  0  0  0
    2.9036    1.2918   -3.4526 H   0  0  0  0  0  0  0  0  0  0  0  0
    2.4965    3.7358   -3.2655 H   0  0  0  0  0  0  0  0  0  0  0  0
    2.1121    2.9215   -1.7296 H   0  0  0  0  0  0  0  0  0  0  0  0
    3.6153    3.8231   -1.8836 H   0  0  0  0  0  0  0  0  0  0  0  0
    5.5176    0.0298   -3.7021 H   0  0  0  0  0  0  0  0  0  0  0  0
    5.7048   -2.4044   -3.9972 H   0  0  0  0  0  0  0  0  0  0  0  0
    5.4897   -4.7197   -1.8586 H   0  0  0  0  0  0  0  0  0  0  0  0
    4.7573   -4.6413   -3.4796 H   0  0  0  0  0  0  0  0  0  0  0  0
    3.7279   -4.8806   -2.0685 H   0  0  0  0  0  0  0  0  0  0  0  0
    3.2946   -3.0183   -0.4837 H   0  0  0  0  0  0  0  0  0  0  0  0
    4.6446    0.4036    1.0572 H   0  0  0  0  0  0  0  0  0  0  0  0
   -0.1964    1.1857    3.6452 H   0  0  0  0  0  0  0  0  0  0  0  0
    1.0953    2.4353    5.2851 H   0  0  0  0  0  0  0  0  0  0  0  0
    3.5557    2.6639    5.0398 H   0  0  0  0  0  0  0  0  0  0  0  0
    4.6940    1.6468    3.1146 H   0  0  0  0  0  0  0  0  0  0  0  0
   -4.0505   -2.0117   -1.2094 H   0  0  0  0  0  0  0  0  0  0  0  0
   -5.0350   -2.4826   -3.4427 H   0  0  0  0  0  0  0  0  0  0  0  0
   -6.6809   -2.1110   -2.8709 H   0  0  0  0  0  0  0  0  0  0  0  0
   -5.9960   -1.2644   -4.2801 H   0  0  0  0  0  0  0  0  0  0  0  0
   -6.3297    0.9929   -3.2926 H   0  0  0  0  0  0  0  0  0  0  0  0
   -5.4956    2.7066   -1.7328 H   0  0  0  0  0  0  0  0  0  0  0  0
   -2.4298    2.8889   -1.1637 H   0  0  0  0  0  0  0  0  0  0  0  0
   -3.7208    4.0598   -0.7647 H   0  0  0  0  0  0  0  0  0  0  0  0
   -1.5450    4.7218    0.2644 H   0  0  0  0  0  0  0  0  0  0  0  0
   -1.4858    3.1683    1.1309 H   0  0  0  0  0  0  0  0  0  0  0  0
   -2.7475    4.3322    1.5180 H   0  0  0  0  0  0  0  0  0  0  0  0
   -4.5076   -1.1465    1.8846 H   0  0  0  0  0  0  0  0  0  0  0  0
    0.7008   -1.6876    3.7103 H   0  0  0  0  0  0  0  0  0  0  0  0
   -0.2888   -2.7775    5.6458 H   0  0  0  0  0  0  0  0  0  0  0  0
   -2.7523   -3.0251    5.8294 H   0  0  0  0  0  0  0  0  0  0  0  0
   -4.2037   -2.1911    4.0310 H   0  0  0  0  0  0  0  0  0  0  0  0
  1  2  2  0  0  0  0
  2  4  1  0  0  0  0
  2 27  1  0  0  0  0
  3  2  1  0  0  0  0
  4  5  1  0  0  0  0
  5 24  1  0  0  0  0
  6  5  2  0  0  0  0
  6 17  1  0  0  0  0
  7  6  1  0  0  0  0
  8  9  1  0  0  0  0
  8  7  2  0  0  0  0
 10 11  1  0  0  0  0
 10  9  1  0  0  0  0
 11 51  1  0  0  0  0
 11 50  1  0  0  0  0
 12  8  1  0  0  0  0
 13 12  2  0  0  0  0
 13 14  1  0  0  0  0
 14 16  2  0  0  0  0
 15 14  1  0  0  0  0
 15 56  1  0  0  0  0
 15 54  1  0  0  0  0
 16  7  1  0  0  0  0
 16 57  1  0  0  0  0
 17 18  2  0  0  0  0
 18 19  1  0  0  0  0
 18 23  1  0  0  0  0
 19 20  1  0  0  0  0
 20 59  1  0  0  0  0
 20 21  2  0  0  0  0
 21 60  1  0  0  0  0
 22 21  1  0  0  0  0
 22 61  1  0  0  0  0
 23 22  2  0  0  0  0
 24 25  1  0  0  0  0
 24 19  2  0  0  0  0
 25 41  2  0  0  0  0
 26 28  2  0  0  0  0
 26 25  1  0  0  0  0
 27 26  1  0  0  0  0
 28 39  1  0  0  0  0
 29 28  1  0  0  0  0
 30 63  1  0  0  0  0
 30 29  2  0  0  0  0
 31 30  1  0  0  0  0
 32 65  1  0  0  0  0
 32 31  1  0  0  0  0
 33 31  2  0  0  0  0
 33 34  1  0  0  0  0
 34 35  2  0  0  0  0
 35 29  1  0  0  0  0
 35 36  1  0  0  0  0
 37 36  1  0  0  0  0
 37 38  1  0  0  0  0
 38 72  1  0  0  0  0
 38 73  1  0  0  0  0
 39 74  1  0  0  0  0
 39 40  2  0  0  0  0
 40 45  1  0  0  0  0
 41 40  1  0  0  0  0
 41 42  1  0  0  0  0
 42 43  2  0  0  0  0
 43 44  1  0  0  0  0
 43 76  1  0  0  0  0
 44 77  1  0  0  0  0
 45 78  1  0  0  0  0
 45 44  2  0  0  0  0
 46  3  1  0  0  0  0
 47 10  1  0  0  0  0
 48 10  1  0  0  0  0
 49 11  1  0  0  0  0
 52 12  1  0  0  0  0
 53 13  1  0  0  0  0
 55 15  1  0  0  0  0
 58 17  1  0  0  0  0
 62 23  1  0  0  0  0
 64 32  1  0  0  0  0
 66 32  1  0  0  0  0
 67 33  1  0  0  0  0
 68 34  1  0  0  0  0
 69 37  1  0  0  0  0
 70 37  1  0  0  0  0
 71 38  1  0  0  0  0
 75 42  1  0  0  0  0
M  END
$$$$
