O=P1(O)OC2=C(C3=CC=C(C4=CC(C(F)(F)F)=CC(C(F)(F)F)=C4)C=C3)C=C5C(C=CC=C5)=C2C6=C(O1)C(C7=CC=C(C8=CC(C(F)(F)F)=CC(C(F)(F)F)=C8)C=C7)=CC9=C6C=CC=C9
 OpenBabel09032010373D

 90 98  0  0  0  0  0  0  0  0999 V2000
    1.3409   -0.3460    0.5095 O   0  0  0  0  0  0  0  0  0  0  0  0
    0.8006    0.4058   -0.6702 P   0  0  2  0  0  0  0  0  0  0  0  0
    0.9766   -0.4352   -2.0305 O   0  0  0  0  0  0  0  0  0  0  0  0
    1.5435    1.8005   -0.9895 O   0  0  0  0  0  0  0  0  0  0  0  0
    0.9846    2.7110   -1.8764 C   0  0  0  0  0  0  0  0  0  0  0  0
    1.7435    3.0225   -3.0346 C   0  0  0  0  0  0  0  0  0  0  0  0
    3.0191    2.3439   -3.2873 C   0  0  0  0  0  0  0  0  0  0  0  0
    4.1560    2.6887   -2.5446 C   0  0  0  0  0  0  0  0  0  0  0  0
    5.1538    1.7404   -2.3328 C   0  0  0  0  0  0  0  0  0  0  0  0
    4.9690    0.4390   -2.8254 C   0  0  0  0  0  0  0  0  0  0  0  0
    5.1735   -0.6852   -1.8978 C   0  0  0  0  0  0  0  0  0  0  0  0
    4.3426   -0.6583   -0.7614 C   0  0  0  0  0  0  0  0  0  0  0  0
    4.1210   -1.7727    0.0378 C   0  0  0  0  0  0  0  0  0  0  0  0
    3.0159   -1.6783    1.0673 C   0  0  0  0  0  0  0  0  0  0  0  0
    2.9550   -2.7721    1.8783 F   0  0  0  0  0  0  0  0  0  0  0  0
    1.7835   -1.5600    0.5025 F   0  0  0  0  0  0  0  0  0  0  0  0
    3.1579   -0.6072    1.8956 F   0  0  0  0  0  0  0  0  0  0  0  0
    4.8687   -2.9228   -0.2267 C   0  0  0  0  0  0  0  0  0  0  0  0
    5.7911   -2.9553   -1.2997 C   0  0  0  0  0  0  0  0  0  0  0  0
    6.5786   -4.2142   -1.5912 C   0  0  0  0  0  0  0  0  0  0  0  0
    7.8056   -3.9644   -2.1248 F   0  0  0  0  0  0  0  0  0  0  0  0
    6.7982   -4.9744   -0.4838 F   0  0  0  0  0  0  0  0  0  0  0  0
    5.9371   -5.0201   -2.4807 F   0  0  0  0  0  0  0  0  0  0  0  0
    5.9090   -1.8380   -2.1552 C   0  0  0  0  0  0  0  0  0  0  0  0
    4.0314    0.2268   -3.8497 C   0  0  0  0  0  0  0  0  0  0  0  0
    3.0375    1.1778   -4.0627 C   0  0  0  0  0  0  0  0  0  0  0  0
    1.2409    3.9542   -3.9354 C   0  0  0  0  0  0  0  0  0  0  0  0
   -0.0014    4.5541   -3.7224 C   0  0  0  0  0  0  0  0  0  0  0  0
   -0.7585    4.2508   -2.5551 C   0  0  0  0  0  0  0  0  0  0  0  0
   -2.0476    4.8381   -2.4812 C   0  0  0  0  0  0  0  0  0  0  0  0
   -2.5338    5.7166   -3.4533 C   0  0  0  0  0  0  0  0  0  0  0  0
   -1.7520    6.0289   -4.5531 C   0  0  0  0  0  0  0  0  0  0  0  0
   -0.4965    5.4450   -4.6888 C   0  0  0  0  0  0  0  0  0  0  0  0
   -0.2358    3.3523   -1.5515 C   0  0  0  0  0  0  0  0  0  0  0  0
   -0.8812    3.1138   -0.2727 C   0  0  0  0  0  0  0  0  0  0  0  0
   -1.1787    1.7917    0.1457 C   0  0  0  0  0  0  0  0  0  0  0  0
   -0.7758    0.7363   -0.6403 O   0  0  0  0  0  0  0  0  0  0  0  0
   -1.9303    1.4843    1.2929 C   0  0  0  0  0  0  0  0  0  0  0  0
   -2.2847    0.1088    1.6655 C   0  0  0  0  0  0  0  0  0  0  0  0
   -3.5353   -0.4247    1.3279 C   0  0  0  0  0  0  0  0  0  0  0  0
   -3.8875   -1.7254    1.7079 C   0  0  0  0  0  0  0  0  0  0  0  0
   -3.0010   -2.5328    2.4374 C   0  0  0  0  0  0  0  0  0  0  0  0
   -3.3722   -3.9002    2.8403 C   0  0  0  0  0  0  0  0  0  0  0  0
   -2.5372   -4.9913    2.5496 C   0  0  0  0  0  0  0  0  0  0  0  0
   -2.8730   -6.3008    2.9351 C   0  0  0  0  0  0  0  0  0  0  0  0
   -1.9561   -7.4488    2.5865 C   0  0  0  0  0  0  0  0  0  0  0  0
   -2.1353   -7.8827    1.3095 F   0  0  0  0  0  0  0  0  0  0  0  0
   -0.6379   -7.1232    2.6925 F   0  0  0  0  0  0  0  0  0  0  0  0
   -2.1354   -8.5386    3.3832 F   0  0  0  0  0  0  0  0  0  0  0  0
   -4.0820   -6.5205    3.6116 C   0  0  0  0  0  0  0  0  0  0  0  0
   -4.9427   -5.4534    3.9107 C   0  0  0  0  0  0  0  0  0  0  0  0
   -6.2301   -5.6961    4.6611 C   0  0  0  0  0  0  0  0  0  0  0  0
   -6.0333   -5.8092    6.0031 F   0  0  0  0  0  0  0  0  0  0  0  0
   -6.8552   -6.8436    4.2764 F   0  0  0  0  0  0  0  0  0  0  0  0
   -7.1458   -4.7014    4.4970 F   0  0  0  0  0  0  0  0  0  0  0  0
   -4.5713   -4.1530    3.5279 C   0  0  0  0  0  0  0  0  0  0  0  0
   -1.7483   -1.9940    2.7696 C   0  0  0  0  0  0  0  0  0  0  0  0
   -1.3962   -0.6929    2.3917 C   0  0  0  0  0  0  0  0  0  0  0  0
   -2.3595    2.5410    2.0968 C   0  0  0  0  0  0  0  0  0  0  0  0
   -2.0295    3.8654    1.7978 C   0  0  0  0  0  0  0  0  0  0  0  0
   -1.2752    4.1672    0.6322 C   0  0  0  0  0  0  0  0  0  0  0  0
   -0.9076    5.5272    0.4619 C   0  0  0  0  0  0  0  0  0  0  0  0
   -1.3132    6.5338    1.3429 C   0  0  0  0  0  0  0  0  0  0  0  0
   -2.0899    6.2138    2.4442 C   0  0  0  0  0  0  0  0  0  0  0  0
   -2.4390    4.8862    2.6729 C   0  0  0  0  0  0  0  0  0  0  0  0
    1.7966   -0.9624   -1.9763 H   0  0  0  0  0  0  0  0  0  0  0  0
    4.1772    3.6146   -1.9726 H   0  0  0  0  0  0  0  0  0  0  0  0
    5.9035    1.9387   -1.5682 H   0  0  0  0  0  0  0  0  0  0  0  0
    3.7675    0.2440   -0.5446 H   0  0  0  0  0  0  0  0  0  0  0  0
    4.7234   -3.8085    0.3934 H   0  0  0  0  0  0  0  0  0  0  0  0
    6.5480   -1.8898   -3.0359 H   0  0  0  0  0  0  0  0  0  0  0  0
    3.9001   -0.7626   -4.2850 H   0  0  0  0  0  0  0  0  0  0  0  0
    2.1810    0.9169   -4.6824 H   0  0  0  0  0  0  0  0  0  0  0  0
    1.8169    4.1913   -4.8288 H   0  0  0  0  0  0  0  0  0  0  0  0
   -2.7143    4.6038   -1.6530 H   0  0  0  0  0  0  0  0  0  0  0  0
   -3.5262    6.1468   -3.3464 H   0  0  0  0  0  0  0  0  0  0  0  0
   -2.1225    6.7096   -5.3141 H   0  0  0  0  0  0  0  0  0  0  0  0
    0.0923    5.6832   -5.5730 H   0  0  0  0  0  0  0  0  0  0  0  0
   -4.2460    0.1716    0.7589 H   0  0  0  0  0  0  0  0  0  0  0  0
   -4.8635   -2.1072    1.4144 H   0  0  0  0  0  0  0  0  0  0  0  0
   -1.6071   -4.8237    2.0043 H   0  0  0  0  0  0  0  0  0  0  0  0
   -4.3583   -7.5338    3.9090 H   0  0  0  0  0  0  0  0  0  0  0  0
   -5.2281   -3.3186    3.7787 H   0  0  0  0  0  0  0  0  0  0  0  0
   -1.0294   -2.5800    3.3392 H   0  0  0  0  0  0  0  0  0  0  0  0
   -0.4147   -0.3108    2.6691 H   0  0  0  0  0  0  0  0  0  0  0  0
   -2.9407    2.3161    2.9910 H   0  0  0  0  0  0  0  0  0  0  0  0
   -0.2751    5.8284   -0.3715 H   0  0  0  0  0  0  0  0  0  0  0  0
   -1.0131    7.5630    1.1647 H   0  0  0  0  0  0  0  0  0  0  0  0
   -2.4090    6.9899    3.1346 H   0  0  0  0  0  0  0  0  0  0  0  0
   -3.0280    4.6503    3.5576 H   0  0  0  0  0  0  0  0  0  0  0  0
  2  3  1  6  0  0  0
  2 37  1  0  0  0  0
  2  1  1  0  0  0  0
  3 66  1  0  0  0  0
  4  2  1  0  0  0  0
  5 34  1  0  0  0  0
  5  4  1  0  0  0  0
  6  5  2  0  0  0  0
  7  6  1  0  0  0  0
  7  8  2  0  0  0  0
  8  9  1  0  0  0  0
  8 67  1  0  0  0  0
  9 68  1  0  0  0  0
 10  9  2  0  0  0  0
 10 11  1  0  0  0  0
 11 12  1  0  0  0  0
 12 69  1  0  0  0  0
 12 13  2  0  0  0  0
 13 14  1  0  0  0  0
 14 15  1  0  0  0  0
 14 17  1  0  0  0  0
 16  1  1  0  0  0  0
 18 13  1  0  0  0  0
 18 70  1  0  0  0  0
 19 18  2  0  0  0  0
 20 19  1  0  0  0  0
 20 22  1  0  0  0  0
 21 20  1  0  0  0  0
 23 20  1  0  0  0  0
 24 11  2  0  0  0  0
 24 19  1  0  0  0  0
 25 10  1  0  0  0  0
 26 25  2  0  0  0  0
 26  7  1  0  0  0  0
 27 28  2  0  0  0  0
 27  6  1  0  0  0  0
 28 29  1  0  0  0  0
 29 30  1  0  0  0  0
 29 34  2  0  0  0  0
 30 75  1  0  0  0  0
 31 76  1  0  0  0  0
 31 30  2  0  0  0  0
 32 31  1  0  0  0  0
 33 32  2  0  0  0  0
 33 28  1  0  0  0  0
 34 35  1  0  0  0  0
 35 36  2  0  0  0  0
 35 61  1  0  0  0  0
 36 38  1  0  0  0  0
 37 36  1  0  0  0  0
 38 39  1  0  0  0  0
 38 59  2  0  0  0  0
 39 58  1  0  0  0  0
 40 39  2  0  0  0  0
 40 41  1  0  0  0  0
 41 42  2  0  0  0  0
 42 57  1  0  0  0  0
 42 43  1  0  0  0  0
 43 56  1  0  0  0  0
 44 43  2  0  0  0  0
 44 45  1  0  0  0  0
 45 50  2  0  0  0  0
 46 48  1  0  0  0  0
 46 45  1  0  0  0  0
 46 49  1  0  0  0  0
 47 46  1  0  0  0  0
 50 82  1  0  0  0  0
 50 51  1  0  0  0  0
 51 52  1  0  0  0  0
 52 53  1  0  0  0  0
 54 52  1  0  0  0  0
 55 52  1  0  0  0  0
 56 83  1  0  0  0  0
 56 51  2  0  0  0  0
 57 84  1  0  0  0  0
 58 85  1  0  0  0  0
 58 57  2  0  0  0  0
 59 86  1  0  0  0  0
 60 59  1  0  0  0  0
 60 65  2  0  0  0  0
 61 60  1  0  0  0  0
 62 61  2  0  0  0  0
 62 63  1  0  0  0  0
 63 64  2  0  0  0  0
 64 65  1  0  0  0  0
 64 89  1  0  0  0  0
 65 90  1  0  0  0  0
 71 24  1  0  0  0  0
 72 25  1  0  0  0  0
 73 26  1  0  0  0  0
 74 27  1  0  0  0  0
 77 32  1  0  0  0  0
 78 33  1  0  0  0  0
 79 40  1  0  0  0  0
 80 41  1  0  0  0  0
 81 44  1  0  0  0  0
 87 62  1  0  0  0  0
 88 63  1  0  0  0  0
M  RAD  1  14   2
M  END
$$$$
