O=P1(O)OC2=C(C3=C(C4CCCCC4)C=C(C5CCCCC5)C=C3C6CCCCC6)C=C7C(C=CC=C7)=C2C8=C(O1)[C@@]([C@@]9=C(C%10CCCCC%10)C=C(C%11CCCCC%11)C=C9C%12CCCCC%12)=CC%13=C8C=CC=C%13
 OpenBabel09032010373D

154166  0  0  0  0  0  0  0  0999 V2000
    0.6165    1.2296   -1.6528 O   0  0  0  0  0  0  0  0  0  0  0  0
    0.0020    0.3479   -0.6130 P   0  0  0  0  0  0  0  0  0  0  0  0
   -0.5960   -0.9915   -1.2690 O   0  0  0  0  0  0  0  0  0  0  0  0
    0.9748   -0.2070    0.5419 O   0  0  0  0  0  0  0  0  0  0  0  0
    1.2847    0.6402    1.5801 C   0  0  0  0  0  0  0  0  0  0  0  0
    2.6303    1.0321    1.7059 C   0  0  0  0  0  0  0  0  0  0  0  0
    3.6938    0.5346    0.8028 C   0  0  0  0  0  0  0  0  0  0  0  0
    4.2769   -0.7451    1.0396 C   0  0  0  0  0  0  0  0  0  0  0  0
    3.8357   -1.6533    2.1935 C   0  0  0  0  0  0  0  0  0  0  0  0
    4.9923   -1.9932    3.1650 C   0  0  0  0  0  0  0  0  0  0  0  0
    5.4133   -3.4590    3.1117 C   0  0  0  0  0  0  0  0  0  0  0  0
    4.2437   -4.4076    3.3717 C   0  0  0  0  0  0  0  0  0  0  0  0
    2.9153   -3.9271    2.7863 C   0  0  0  0  0  0  0  0  0  0  0  0
    3.1095   -2.9088    1.6692 C   0  0  0  0  0  0  0  0  0  0  0  0
    5.3021   -1.2018    0.1899 C   0  0  0  0  0  0  0  0  0  0  0  0
    5.7801   -0.4300   -0.8697 C   0  0  0  0  0  0  0  0  0  0  0  0
    6.8990   -0.9202   -1.7718 C   0  0  0  0  0  0  0  0  0  0  0  0
    6.5900   -2.2783   -2.4190 C   0  0  0  0  0  0  0  0  0  0  0  0
    7.6527   -2.6650   -3.4522 C   0  0  0  0  0  0  0  0  0  0  0  0
    9.0459   -2.1202   -3.1316 C   0  0  0  0  0  0  0  0  0  0  0  0
    9.2548   -1.9375   -1.6348 C   0  0  0  0  0  0  0  0  0  0  0  0
    8.2516   -0.9504   -1.0304 C   0  0  0  0  0  0  0  0  0  0  0  0
    5.2130    0.8307   -1.0823 C   0  0  0  0  0  0  0  0  0  0  0  0
    4.1693    1.3325   -0.2834 C   0  0  0  0  0  0  0  0  0  0  0  0
    3.5895    2.7261   -0.5765 C   0  0  0  0  0  0  0  0  0  0  0  0
    3.2973    3.0369   -2.0649 C   0  0  0  0  0  0  0  0  0  0  0  0
    4.4115    3.7180   -2.8609 C   0  0  0  0  0  0  0  0  0  0  0  0
    5.0895    4.8403   -2.0908 C   0  0  0  0  0  0  0  0  0  0  0  0
    5.5660    4.3665   -0.7262 C   0  0  0  0  0  0  0  0  0  0  0  0
    4.4028    3.8411    0.1079 C   0  0  0  0  0  0  0  0  0  0  0  0
    2.9710    1.8750    2.7667 C   0  0  0  0  0  0  0  0  0  0  0  0
    2.0055    2.3624    3.6494 C   0  0  0  0  0  0  0  0  0  0  0  0
    0.6544    1.9455    3.5251 C   0  0  0  0  0  0  0  0  0  0  0  0
   -0.2722    2.5528    4.4108 C   0  0  0  0  0  0  0  0  0  0  0  0
    0.1161    3.4637    5.3971 C   0  0  0  0  0  0  0  0  0  0  0  0
    1.4503    3.8145    5.5244 C   0  0  0  0  0  0  0  0  0  0  0  0
    2.3879    3.2703    4.6514 C   0  0  0  0  0  0  0  0  0  0  0  0
    0.2781    0.9883    2.5145 C   0  0  0  0  0  0  0  0  0  0  0  0
   -1.0274    0.3594    2.4533 C   0  0  0  0  0  0  0  0  0  0  0  0
   -1.7852    0.3770    1.2563 C   0  0  0  0  0  0  0  0  0  0  0  0
   -1.2688    0.9844    0.1363 O   0  0  0  0  0  0  0  0  0  0  0  0
   -3.1139   -0.0819    1.1644 C   0  0  0  0  0  0  0  0  0  0  0  0
   -3.9015   -0.0014   -0.0891 C   0  0  0  0  0  0  0  0  0  0  0  0
   -4.4551    1.2418   -0.5104 C   0  0  0  0  0  0  0  0  0  0  0  0
   -4.2898    2.5343    0.2946 C   0  0  0  0  0  0  0  0  0  0  0  0
   -3.4768    3.6024   -0.4707 C   0  0  0  0  0  0  0  0  0  0  0  0
   -3.7907    5.0356   -0.0302 C   0  0  0  0  0  0  0  0  0  0  0  0
   -4.1953    5.1053    1.4358 C   0  0  0  0  0  0  0  0  0  0  0  0
   -5.4533    4.2827    1.7208 C   0  0  0  0  0  0  0  0  0  0  0  0
   -5.6407    3.0982    0.7674 C   0  0  0  0  0  0  0  0  0  0  0  0
   -5.2168    1.2916   -1.6959 C   0  0  0  0  0  0  0  0  0  0  0  0
   -5.4737    0.1513   -2.4596 C   0  0  0  0  0  0  0  0  0  0  0  0
   -6.3246    0.2557   -3.7137 C   0  0  0  0  0  0  0  0  0  0  0  0
   -5.5530   -0.1850   -4.9702 C   0  0  0  0  0  0  0  0  0  0  0  0
   -6.4167   -0.0681   -6.2249 C   0  0  0  0  0  0  0  0  0  0  0  0
   -7.7266   -0.8373   -6.0798 C   0  0  0  0  0  0  0  0  0  0  0  0
   -8.4976   -0.4078   -4.8351 C   0  0  0  0  0  0  0  0  0  0  0  0
   -7.6433   -0.5247   -3.5740 C   0  0  0  0  0  0  0  0  0  0  0  0
   -4.9494   -1.0691   -2.0245 C   0  0  0  0  0  0  0  0  0  0  0  0
   -4.1499   -1.1732   -0.8684 C   0  0  0  0  0  0  0  0  0  0  0  0
   -3.6450   -2.5603   -0.4431 C   0  0  0  0  0  0  0  0  0  0  0  0
   -4.7481   -3.3364    0.3168 C   0  0  0  0  0  0  0  0  0  0  0  0
   -5.3145   -4.5043   -0.4843 C   0  0  0  0  0  0  0  0  0  0  0  0
   -4.2309   -5.5063   -0.8822 C   0  0  0  0  0  0  0  0  0  0  0  0
   -2.8768   -4.8581   -1.1711 C   0  0  0  0  0  0  0  0  0  0  0  0
   -3.0260   -3.3989   -1.5884 C   0  0  0  0  0  0  0  0  0  0  0  0
   -3.7050   -0.6085    2.3148 C   0  0  0  0  0  0  0  0  0  0  0  0
   -2.9852   -0.7522    3.5017 C   0  0  0  0  0  0  0  0  0  0  0  0
   -1.6412   -0.3005    3.5798 C   0  0  0  0  0  0  0  0  0  0  0  0
   -0.9584   -0.5832    4.7910 C   0  0  0  0  0  0  0  0  0  0  0  0
   -1.5774   -1.2068    5.8776 C   0  0  0  0  0  0  0  0  0  0  0  0
   -2.9055   -1.5889    5.7870 C   0  0  0  0  0  0  0  0  0  0  0  0
   -3.6027   -1.3676    4.6033 C   0  0  0  0  0  0  0  0  0  0  0  0
   -1.0533   -0.7737   -2.1013 H   0  0  0  0  0  0  0  0  0  0  0  0
    3.1081   -1.1195    2.8134 H   0  0  0  0  0  0  0  0  0  0  0  0
    4.6555   -1.7796    4.1890 H   0  0  0  0  0  0  0  0  0  0  0  0
    5.8635   -1.3476    3.0014 H   0  0  0  0  0  0  0  0  0  0  0  0
    6.2053   -3.6473    3.8457 H   0  0  0  0  0  0  0  0  0  0  0  0
    5.8474   -3.6817    2.1301 H   0  0  0  0  0  0  0  0  0  0  0  0
    4.1193   -4.5543    4.4516 H   0  0  0  0  0  0  0  0  0  0  0  0
    4.4940   -5.3927    2.9596 H   0  0  0  0  0  0  0  0  0  0  0  0
    2.3128   -3.4731    3.5835 H   0  0  0  0  0  0  0  0  0  0  0  0
    2.3426   -4.7864    2.4192 H   0  0  0  0  0  0  0  0  0  0  0  0
    2.1341   -2.6265    1.2556 H   0  0  0  0  0  0  0  0  0  0  0  0
    3.6628   -3.3815    0.8482 H   0  0  0  0  0  0  0  0  0  0  0  0
    5.7438   -2.1788    0.3684 H   0  0  0  0  0  0  0  0  0  0  0  0
    6.9995   -0.2017   -2.5986 H   0  0  0  0  0  0  0  0  0  0  0  0
    5.6042   -2.2677   -2.9005 H   0  0  0  0  0  0  0  0  0  0  0  0
    6.5467   -3.0619   -1.6515 H   0  0  0  0  0  0  0  0  0  0  0  0
    7.6895   -3.7588   -3.5246 H   0  0  0  0  0  0  0  0  0  0  0  0
    7.3544   -2.3040   -4.4440 H   0  0  0  0  0  0  0  0  0  0  0  0
    9.1826   -1.1539   -3.6335 H   0  0  0  0  0  0  0  0  0  0  0  0
    9.8068   -2.7936   -3.5423 H   0  0  0  0  0  0  0  0  0  0  0  0
    9.1506   -2.9099   -1.1370 H   0  0  0  0  0  0  0  0  0  0  0  0
   10.2752   -1.5922   -1.4334 H   0  0  0  0  0  0  0  0  0  0  0  0
    8.1298   -1.1970    0.0317 H   0  0  0  0  0  0  0  0  0  0  0  0
    8.6790    0.0609   -1.0498 H   0  0  0  0  0  0  0  0  0  0  0  0
    5.6064    1.4309   -1.8938 H   0  0  0  0  0  0  0  0  0  0  0  0
    2.5953    2.7443   -0.1135 H   0  0  0  0  0  0  0  0  0  0  0  0
    2.9752    2.1334   -2.5957 H   0  0  0  0  0  0  0  0  0  0  0  0
    2.4371    3.7211   -2.0869 H   0  0  0  0  0  0  0  0  0  0  0  0
    3.9908    4.1210   -3.7904 H   0  0  0  0  0  0  0  0  0  0  0  0
    5.1628    2.9876   -3.1740 H   0  0  0  0  0  0  0  0  0  0  0  0
    5.9396    5.2209   -2.6681 H   0  0  0  0  0  0  0  0  0  0  0  0
    4.3895    5.6758   -1.9673 H   0  0  0  0  0  0  0  0  0  0  0  0
    6.0409    5.2016   -0.1982 H   0  0  0  0  0  0  0  0  0  0  0  0
    6.3320    3.5918   -0.8423 H   0  0  0  0  0  0  0  0  0  0  0  0
    3.7257    4.6824    0.3091 H   0  0  0  0  0  0  0  0  0  0  0  0
    4.7834    3.5162    1.0821 H   0  0  0  0  0  0  0  0  0  0  0  0
    4.0134    2.1669    2.8877 H   0  0  0  0  0  0  0  0  0  0  0  0
   -1.3350    2.3290    4.3349 H   0  0  0  0  0  0  0  0  0  0  0  0
   -0.6303    3.8969    6.0575 H   0  0  0  0  0  0  0  0  0  0  0  0
    1.7613    4.5212    6.2888 H   0  0  0  0  0  0  0  0  0  0  0  0
    3.4282    3.5750    4.7512 H   0  0  0  0  0  0  0  0  0  0  0  0
   -3.7319    2.3231    1.2128 H   0  0  0  0  0  0  0  0  0  0  0  0
   -3.6264    3.5389   -1.5550 H   0  0  0  0  0  0  0  0  0  0  0  0
   -2.4089    3.4051   -0.3129 H   0  0  0  0  0  0  0  0  0  0  0  0
   -2.9189    5.6739   -0.2134 H   0  0  0  0  0  0  0  0  0  0  0  0
   -4.6054    5.4346   -0.6475 H   0  0  0  0  0  0  0  0  0  0  0  0
   -3.3690    4.7322    2.0543 H   0  0  0  0  0  0  0  0  0  0  0  0
   -4.3617    6.1462    1.7353 H   0  0  0  0  0  0  0  0  0  0  0  0
   -5.4099    3.9222    2.7558 H   0  0  0  0  0  0  0  0  0  0  0  0
   -6.3395    4.9259    1.6591 H   0  0  0  0  0  0  0  0  0  0  0  0
   -6.2339    2.3228    1.2680 H   0  0  0  0  0  0  0  0  0  0  0  0
   -6.2357    3.4317   -0.0924 H   0  0  0  0  0  0  0  0  0  0  0  0
   -5.6327    2.2446   -2.0197 H   0  0  0  0  0  0  0  0  0  0  0  0
   -6.5899    1.3131   -3.8574 H   0  0  0  0  0  0  0  0  0  0  0  0
   -4.6513    0.4281   -5.0919 H   0  0  0  0  0  0  0  0  0  0  0  0
   -5.2130   -1.2237   -4.8723 H   0  0  0  0  0  0  0  0  0  0  0  0
   -5.8613   -0.4464   -7.0905 H   0  0  0  0  0  0  0  0  0  0  0  0
   -6.6334    0.9890   -6.4218 H   0  0  0  0  0  0  0  0  0  0  0  0
   -8.3466   -0.6800   -6.9696 H   0  0  0  0  0  0  0  0  0  0  0  0
   -7.5140   -1.9121   -6.0242 H   0  0  0  0  0  0  0  0  0  0  0  0
   -9.3975   -1.0240   -4.7282 H   0  0  0  0  0  0  0  0  0  0  0  0
   -8.8335    0.6298   -4.9532 H   0  0  0  0  0  0  0  0  0  0  0  0
   -7.4456   -1.5863   -3.3785 H   0  0  0  0  0  0  0  0  0  0  0  0
   -8.2127   -0.1503   -2.7142 H   0  0  0  0  0  0  0  0  0  0  0  0
   -5.1905   -1.9634   -2.5937 H   0  0  0  0  0  0  0  0  0  0  0  0
   -2.8199   -2.4175    0.2653 H   0  0  0  0  0  0  0  0  0  0  0  0
   -4.3163   -3.7374    1.2439 H   0  0  0  0  0  0  0  0  0  0  0  0
   -5.5677   -2.6769    0.6264 H   0  0  0  0  0  0  0  0  0  0  0  0
   -6.0903   -5.0173    0.0955 H   0  0  0  0  0  0  0  0  0  0  0  0
   -5.8068   -4.1211   -1.3865 H   0  0  0  0  0  0  0  0  0  0  0  0
   -4.5731   -6.0600   -1.7649 H   0  0  0  0  0  0  0  0  0  0  0  0
   -4.1023   -6.2507   -0.0870 H   0  0  0  0  0  0  0  0  0  0  0  0
   -2.2468   -4.9141   -0.2743 H   0  0  0  0  0  0  0  0  0  0  0  0
   -2.3564   -5.4252   -1.9514 H   0  0  0  0  0  0  0  0  0  0  0  0
   -3.6225   -3.3664   -2.5056 H   0  0  0  0  0  0  0  0  0  0  0  0
   -2.0454   -2.9937   -1.8563 H   0  0  0  0  0  0  0  0  0  0  0  0
   -4.7408   -0.9417    2.2652 H   0  0  0  0  0  0  0  0  0  0  0  0
    0.0942   -0.3294    4.9036 H   0  0  0  0  0  0  0  0  0  0  0  0
   -1.0130   -1.3949    6.7869 H   0  0  0  0  0  0  0  0  0  0  0  0
   -3.3945   -2.0755    6.6257 H   0  0  0  0  0  0  0  0  0  0  0  0
   -4.6376   -1.6993    4.5415 H   0  0  0  0  0  0  0  0  0  0  0  0
  1  2  2  0  0  0  0
  2 41  1  0  0  0  0
  2  4  1  0  0  0  0
  3  2  1  0  0  0  0
  4  5  1  0  0  0  0
  5  6  2  0  0  0  0
  5 38  1  0  0  0  0
  6 31  1  0  0  0  0
  7  8  1  0  0  0  0
  7  6  1  0  0  0  0
  8  9  1  0  0  0  0
  9 75  1  0  0  0  0
  9 10  1  0  0  0  0
 10 76  1  0  0  0  0
 11 10  1  0  0  0  0
 11 12  1  0  0  0  0
 11 78  1  0  0  0  0
 12 80  1  0  0  0  0
 13 12  1  0  0  0  0
 13 82  1  0  0  0  0
 14  9  1  0  0  0  0
 14 13  1  0  0  0  0
 15 86  1  0  0  0  0
 15  8  2  0  0  0  0
 16 15  1  0  0  0  0
 17 22  1  0  0  0  0
 17 16  1  0  0  0  0
 18 17  1  0  0  0  0
 18 89  1  0  0  0  0
 19 20  1  0  0  0  0
 19 18  1  0  0  0  0
 20 21  1  0  0  0  0
 21 95  1  0  0  0  0
 21 94  1  0  0  0  0
 21 22  1  0  0  0  0
 22 96  1  0  0  0  0
 23 16  2  0  0  0  0
 23 24  1  0  0  0  0
 24  7  2  0  0  0  0
 25 24  1  0  0  0  0
 25 99  1  0  0  0  0
 25 30  1  0  0  0  0
 26 25  1  0  0  0  0
 27 28  1  0  0  0  0
 27 26  1  0  0  0  0
 28105  1  0  0  0  0
 28 29  1  0  0  0  0
 29106  1  0  0  0  0
 29 30  1  0  0  0  0
 30108  1  0  0  0  0
 30109  1  0  0  0  0
 31110  1  0  0  0  0
 31 32  2  0  0  0  0
 32 37  1  0  0  0  0
 33 32  1  0  0  0  0
 33 34  1  0  0  0  0
 34 35  2  0  0  0  0
 35 36  1  0  0  0  0
 35112  1  0  0  0  0
 36113  1  0  0  0  0
 37114  1  0  0  0  0
 37 36  2  0  0  0  0
 38 33  2  0  0  0  0
 39 38  1  0  0  0  0
 39 69  2  0  0  0  0
 40 39  1  0  0  0  0
 41 40  1  0  0  0  0
 42 40  2  0  0  0  0
 42 67  1  0  0  0  0
 43 42  1  0  0  0  0
 44 43  1  0  0  0  0
 44 45  1  0  0  0  0
 45 50  1  0  0  0  0
 45115  1  0  0  0  0
 46117  1  0  0  0  0
 46 47  1  0  0  0  0
 46 45  1  0  0  0  0
 47 48  1  0  0  0  0
 48 49  1  0  0  0  0
 48121  1  0  0  0  0
 48120  1  0  0  0  0
 49122  1  0  0  0  0
 50124  1  0  0  0  0
 50 49  1  0  0  0  0
 51 44  2  0  0  0  0
 52 59  2  0  0  0  0
 52 51  1  0  0  0  0
 53 58  1  0  0  0  0
 53 52  1  0  0  0  0
 54129  1  0  0  0  0
 54 53  1  0  0  0  0
 55 56  1  0  0  0  0
 55 54  1  0  0  0  0
 56133  1  0  0  0  0
 56 57  1  0  0  0  0
 57134  1  0  0  0  0
 57 58  1  0  0  0  0
 58136  1  0  0  0  0
 58137  1  0  0  0  0
 59 60  1  0  0  0  0
 60 61  1  0  0  0  0
 60 43  2  0  0  0  0
 61139  1  0  0  0  0
 61 62  1  0  0  0  0
 62141  1  0  0  0  0
 62140  1  0  0  0  0
 63142  1  0  0  0  0
 63 62  1  0  0  0  0
 64 63  1  0  0  0  0
 64145  1  0  0  0  0
 65 64  1  0  0  0  0
 65146  1  0  0  0  0
 66 65  1  0  0  0  0
 66 61  1  0  0  0  0
 67 68  2  0  0  0  0
 68 69  1  0  0  0  0
 68 73  1  0  0  0  0
 69 70  1  0  0  0  0
 70151  1  0  0  0  0
 70 71  2  0  0  0  0
 71152  1  0  0  0  0
 72 71  1  0  0  0  0
 72153  1  0  0  0  0
 73 72  2  0  0  0  0
 74  3  1  0  0  0  0
 77 10  1  0  0  0  0
 79 11  1  0  0  0  0
 81 12  1  0  0  0  0
 83 13  1  0  0  0  0
 84 14  1  0  0  0  0
 85 14  1  0  0  0  0
 87 17  1  0  0  0  0
 88 18  1  0  0  0  0
 90 19  1  0  0  0  0
 91 19  1  0  0  0  0
 92 20  1  0  0  0  0
 93 20  1  0  0  0  0
 97 22  1  0  0  0  0
 98 23  1  0  0  0  0
100 26  1  0  0  0  0
101 26  1  0  0  0  0
102 27  1  0  0  0  0
103 27  1  0  0  0  0
104 28  1  0  0  0  0
107 29  1  0  0  0  0
111 34  1  0  0  0  0
116 46  1  0  0  0  0
118 47  1  0  0  0  0
119 47  1  0  0  0  0
123 49  1  0  0  0  0
125 50  1  0  0  0  0
126 51  1  0  0  0  0
127 53  1  0  0  0  0
128 54  1  0  0  0  0
130 55  1  0  0  0  0
131 55  1  0  0  0  0
132 56  1  0  0  0  0
135 57  1  0  0  0  0
138 59  1  0  0  0  0
143 63  1  0  0  0  0
144 64  1  0  0  0  0
147 65  1  0  0  0  0
148 66  1  0  0  0  0
149 66  1  0  0  0  0
150 67  1  0  0  0  0
154 73  1  0  0  0  0
M  END
$$$$
