O=P1(O)OC2=C(C3=CC=C(S(F)(F)(F)(F)F)C=C3)C=C4C(C=CC=C4)=C2C5=C(O1)C(C6=CC=C(S(F)(F)(F)(F)F)C=C6)=CC7=C5C=CC=C7
 OpenBabel09032010373D

 68 67  0  0  0  0  0  0  0  0999 V2000
    0.0825   -1.6793   -2.6615 O   0  0  0  0  0  0  0  0  0  0  0  0
   -0.1934   -1.5859   -1.1960 P   0  0  2  0  0  0  0  0  0  0  0  0
   -0.6505   -3.0895   -0.6338 O   0  0  0  0  0  0  0  0  0  0  0  0
   -1.4728   -0.3901   -1.0085 O   0  0  0  0  0  0  0  0  0  0  0  0
   -1.6416    0.2871    0.1939 C   0  0  0  0  0  0  0  0  0  0  0  0
   -2.8616    0.3737    0.7800 C   0  0  0  0  0  0  0  0  0  0  0  0
   -3.9926   -0.2359    0.0724 C   0  0  0  0  0  0  0  0  0  0  0  0
   -4.2078   -0.0522   -1.2658 C   0  0  0  0  0  0  0  0  0  0  0  0
   -5.2911   -0.6473   -1.9111 C   0  0  0  0  0  0  0  0  0  0  0  0
   -6.1736   -1.4274   -1.2525 C   0  0  0  0  0  0  0  0  0  0  0  0
   -7.7054   -2.2406   -2.2150 S   0  0  0  0  0  0  0  0  0  0  0  0
   -7.2963   -2.8982   -4.3963 F   0  0  0  0  0  0  0  0  0  0  0  0
   -9.2142   -3.5593   -1.4046 F   0  0  0  0  0  0  0  0  0  0  0  0
   -9.2777   -1.1670   -1.6541 F   0  0  0  0  0  0  0  0  0  0  0  0
   -8.6138   -1.0457   -3.9314 F   0  0  0  0  0  0  0  0  0  0  0  0
   -7.1164   -4.1893   -2.4069 F   0  0  0  0  0  0  0  0  0  0  0  0
   -5.9285   -1.5885    0.0783 C   0  0  0  0  0  0  0  0  0  0  0  0
   -4.8594   -1.0210    0.7944 C   0  0  0  0  0  0  0  0  0  0  0  0
   -3.0496    1.0094    1.9944 C   0  0  0  0  0  0  0  0  0  0  0  0
   -1.9719    1.5721    2.6501 C   0  0  0  0  0  0  0  0  0  0  0  0
   -0.6577    1.5266    2.1016 C   0  0  0  0  0  0  0  0  0  0  0  0
    0.4494    1.8991    2.8207 C   0  0  0  0  0  0  0  0  0  0  0  0
    0.2868    2.3652    4.1172 C   0  0  0  0  0  0  0  0  0  0  0  0
   -0.9811    2.4394    4.6596 C   0  0  0  0  0  0  0  0  0  0  0  0
   -2.0794    2.0492    3.9396 C   0  0  0  0  0  0  0  0  0  0  0  0
   -0.5805    0.9011    0.9034 C   0  0  0  0  0  0  0  0  0  0  0  0
    0.7512    1.1923    0.2964 C   0  0  0  0  0  0  0  0  0  0  0  0
    1.6520    0.1837   -0.1258 C   0  0  0  0  0  0  0  0  0  0  0  0
    1.2561   -1.1317   -0.3363 O   0  0  0  0  0  0  0  0  0  0  0  0
    2.9251    0.5856   -0.3419 C   0  0  0  0  0  0  0  0  0  0  0  0
    3.9072   -0.4157   -0.7456 C   0  0  0  0  0  0  0  0  0  0  0  0
    5.0891   -0.4623   -0.0093 C   0  0  0  0  0  0  0  0  0  0  0  0
    6.0281   -1.4219   -0.4223 C   0  0  0  0  0  0  0  0  0  0  0  0
    5.8736   -2.2907   -1.4659 C   0  0  0  0  0  0  0  0  0  0  0  0
    7.2699   -3.5950   -2.0322 S   0  0  0  0  0  0  0  0  0  0  0  0
    7.3922   -4.1747   -4.1840 F   0  0  0  0  0  0  0  0  0  0  0  0
    9.0853   -4.1005   -0.9858 F   0  0  0  0  0  0  0  0  0  0  0  0
    6.9365   -5.0944   -0.5232 F   0  0  0  0  0  0  0  0  0  0  0  0
    6.3603   -5.6794   -2.7491 F   0  0  0  0  0  0  0  0  0  0  0  0
    8.6590   -2.6569   -2.8611 F   0  0  0  0  0  0  0  0  0  0  0  0
    4.7163   -2.1994   -2.1368 C   0  0  0  0  0  0  0  0  0  0  0  0
    3.7238   -1.2640   -1.7858 C   0  0  0  0  0  0  0  0  0  0  0  0
    3.2909    1.9111   -0.1662 C   0  0  0  0  0  0  0  0  0  0  0  0
    2.3773    2.8565    0.2233 C   0  0  0  0  0  0  0  0  0  0  0  0
    1.0184    2.5075    0.4731 C   0  0  0  0  0  0  0  0  0  0  0  0
    0.0425    3.4501    0.6719 C   0  0  0  0  0  0  0  0  0  0  0  0
    0.3866    4.7885    0.6602 C   0  0  0  0  0  0  0  0  0  0  0  0
    1.7065    5.1574    0.4430 C   0  0  0  0  0  0  0  0  0  0  0  0
    2.6675    4.2030    0.2291 C   0  0  0  0  0  0  0  0  0  0  0  0
   -0.3162   -3.3053    0.2656 H   0  0  0  0  0  0  0  0  0  0  0  0
   -3.5668    0.5492   -1.8753 H   0  0  0  0  0  0  0  0  0  0  0  0
   -5.4250   -0.4806   -2.9541 H   0  0  0  0  0  0  0  0  0  0  0  0
   -6.6823   -2.2351    0.5584 H   0  0  0  0  0  0  0  0  0  0  0  0
   -4.7849   -1.2270    1.8285 H   0  0  0  0  0  0  0  0  0  0  0  0
   -4.0360    1.0598    2.4180 H   0  0  0  0  0  0  0  0  0  0  0  0
    1.4870    1.7768    2.5929 H   0  0  0  0  0  0  0  0  0  0  0  0
    1.1185    2.6812    4.7278 H   0  0  0  0  0  0  0  0  0  0  0  0
   -1.1399    2.8119    5.6538 H   0  0  0  0  0  0  0  0  0  0  0  0
   -3.0780    2.1126    4.3889 H   0  0  0  0  0  0  0  0  0  0  0  0
    5.3341    0.1474    0.8131 H   0  0  0  0  0  0  0  0  0  0  0  0
    6.9988   -1.5555    0.0830 H   0  0  0  0  0  0  0  0  0  0  0  0
    4.5290   -2.8438   -2.9580 H   0  0  0  0  0  0  0  0  0  0  0  0
    2.8392   -1.2619   -2.3872 H   0  0  0  0  0  0  0  0  0  0  0  0
    4.3042    2.1888   -0.3400 H   0  0  0  0  0  0  0  0  0  0  0  0
   -1.0205    3.3253    0.7211 H   0  0  0  0  0  0  0  0  0  0  0  0
   -0.3516    5.5509    0.8204 H   0  0  0  0  0  0  0  0  0  0  0  0
    1.9710    6.2221    0.4539 H   0  0  0  0  0  0  0  0  0  0  0  0
    3.7024    4.5283    0.0571 H   0  0  0  0  0  0  0  0  0  0  0  0
  2  1  2  6  0  0  0
  2  4  1  0  0  0  0
  2  3  1  0  0  0  0
  2 29  1  0  0  0  0
  3 50  1  0  0  0  0
  4  5  1  0  0  0  0
  5  6  2  0  0  0  0
  5 26  1  0  0  0  0
  6 19  1  0  0  0  0
  7  6  1  0  0  0  0
  7 18  2  0  0  0  0
  8  7  1  0  0  0  0
  9  8  2  0  0  0  0
  9 10  1  0  0  0  0
 10 17  2  0  0  0  0
 11 14  1  0  0  0  0
 11 10  1  0  0  0  0
 16 11  1  0  0  0  0
 17 53  1  0  0  0  0
 17 18  1  0  0  0  0
 18 54  1  0  0  0  0
 19 55  1  0  0  0  0
 19 20  2  0  0  0  0
 20 25  1  0  0  0  0
 21 20  1  0  0  0  0
 21 22  1  0  0  0  0
 22 23  2  0  0  0  0
 23 24  1  0  0  0  0
 23 57  1  0  0  0  0
 24 58  1  0  0  0  0
 25 59  1  0  0  0  0
 25 24  2  0  0  0  0
 26 21  2  0  0  0  0
 27 45  1  0  0  0  0
 27 26  1  0  0  0  0
 28 27  2  0  0  0  0
 29 28  1  0  0  0  0
 30 43  2  0  0  0  0
 30 28  1  0  0  0  0
 31 30  1  0  0  0  0
 31 32  2  0  0  0  0
 32 60  1  0  0  0  0
 33 32  1  0  0  0  0
 33 61  1  0  0  0  0
 34 33  2  0  0  0  0
 35 34  1  0  0  0  0
 40 35  1  0  0  0  0
 41 42  2  0  0  0  0
 41 34  1  0  0  0  0
 42 31  1  0  0  0  0
 43 44  1  0  0  0  0
 44 49  2  0  0  0  0
 44 45  1  0  0  0  0
 45 46  2  0  0  0  0
 46 65  1  0  0  0  0
 47 46  1  0  0  0  0
 47 66  1  0  0  0  0
 48 67  1  0  0  0  0
 48 47  2  0  0  0  0
 49 48  1  0  0  0  0
 51  8  1  0  0  0  0
 52  9  1  0  0  0  0
 56 22  1  0  0  0  0
 62 41  1  0  0  0  0
 63 42  1  0  0  0  0
 64 43  1  0  0  0  0
 68 49  1  0  0  0  0
M  RAD  7  12   2  13   2  15   2  36   2  37   2  38   2  39   2
M  END
$$$$
