O=P1(O)OC2=C(C3=C(OC)C=CC=C3OC)C=C4C(C=CC=C4)=C2C5=C(O1)[C@@]([C@@]6=C(OC)C=CC=C6OC)=CC7=C5C=CC=C7
 OpenBabel09032010373D

 74 80  0  0  0  0  0  0  0  0999 V2000
    0.9970    3.0895   -0.5308 O   0  0  0  0  0  0  0  0  0  0  0  0
    0.4076    1.7678   -0.9110 P   0  0  0  0  0  0  0  0  0  0  0  0
   -0.2756    1.8146   -2.3672 O   0  0  0  0  0  0  0  0  0  0  0  0
    1.4128    0.5256   -1.0818 O   0  0  0  0  0  0  0  0  0  0  0  0
    1.6373   -0.3410   -0.0392 C   0  0  0  0  0  0  0  0  0  0  0  0
    2.9568   -0.4103    0.4410 C   0  0  0  0  0  0  0  0  0  0  0  0
    4.0267    0.4633   -0.0768 C   0  0  0  0  0  0  0  0  0  0  0  0
    4.8686    0.0332   -1.1210 C   0  0  0  0  0  0  0  0  0  0  0  0
    4.7246   -1.2334   -1.6362 O   0  0  0  0  0  0  0  0  0  0  0  0
    4.1302   -1.1796   -2.9335 C   0  0  0  0  0  0  0  0  0  0  0  0
    5.9027    0.8406   -1.5991 C   0  0  0  0  0  0  0  0  0  0  0  0
    6.0930    2.1091   -1.0610 C   0  0  0  0  0  0  0  0  0  0  0  0
    5.2585    2.5669   -0.0395 C   0  0  0  0  0  0  0  0  0  0  0  0
    4.2267    1.7573    0.4534 C   0  0  0  0  0  0  0  0  0  0  0  0
    3.3905    2.1301    1.4784 O   0  0  0  0  0  0  0  0  0  0  0  0
    3.2681    3.5251    1.7292 C   0  0  0  0  0  0  0  0  0  0  0  0
    3.2501   -1.3409    1.4379 C   0  0  0  0  0  0  0  0  0  0  0  0
    2.2603   -2.1638    1.9767 C   0  0  0  0  0  0  0  0  0  0  0  0
    0.9273   -2.0878    1.4908 C   0  0  0  0  0  0  0  0  0  0  0  0
   -0.0260   -2.8887    2.1732 C   0  0  0  0  0  0  0  0  0  0  0  0
    0.3205   -3.7577    3.2124 C   0  0  0  0  0  0  0  0  0  0  0  0
    1.6390   -3.8457    3.6264 C   0  0  0  0  0  0  0  0  0  0  0  0
    2.6008   -3.0468    3.0162 C   0  0  0  0  0  0  0  0  0  0  0  0
    0.5957   -1.1949    0.4035 C   0  0  0  0  0  0  0  0  0  0  0  0
   -0.7192   -1.1477   -0.2079 C   0  0  0  0  0  0  0  0  0  0  0  0
   -1.4251    0.0758   -0.2683 C   0  0  0  0  0  0  0  0  0  0  0  0
   -0.7816    1.2477    0.0493 O   0  0  0  0  0  0  0  0  0  0  0  0
   -2.7976    0.1710   -0.5645 C   0  0  0  0  0  0  0  0  0  0  0  0
   -3.5611    1.4232   -0.3807 C   0  0  0  0  0  0  0  0  0  0  0  0
   -3.5831    2.4516   -1.3399 C   0  0  0  0  0  0  0  0  0  0  0  0
   -2.8421    2.3559   -2.4922 O   0  0  0  0  0  0  0  0  0  0  0  0
   -3.6606    1.8845   -3.5661 C   0  0  0  0  0  0  0  0  0  0  0  0
   -4.2900    3.6413   -1.1260 C   0  0  0  0  0  0  0  0  0  0  0  0
   -5.0364    3.8106    0.0369 C   0  0  0  0  0  0  0  0  0  0  0  0
   -5.0554    2.8017    0.9951 C   0  0  0  0  0  0  0  0  0  0  0  0
   -4.3090    1.6347    0.7960 C   0  0  0  0  0  0  0  0  0  0  0  0
   -4.3737    0.6509    1.7550 O   0  0  0  0  0  0  0  0  0  0  0  0
   -3.5069    0.9654    2.8466 C   0  0  0  0  0  0  0  0  0  0  0  0
   -3.4623   -0.9930   -0.9556 C   0  0  0  0  0  0  0  0  0  0  0  0
   -2.7894   -2.2128   -1.0676 C   0  0  0  0  0  0  0  0  0  0  0  0
   -1.4186   -2.3038   -0.7074 C   0  0  0  0  0  0  0  0  0  0  0  0
   -0.7968   -3.5621   -0.9052 C   0  0  0  0  0  0  0  0  0  0  0  0
   -1.4945   -4.6775   -1.3763 C   0  0  0  0  0  0  0  0  0  0  0  0
   -2.8424   -4.5702   -1.6803 C   0  0  0  0  0  0  0  0  0  0  0  0
   -3.4840   -3.3438   -1.5301 C   0  0  0  0  0  0  0  0  0  0  0  0
   -1.0359    2.4303   -2.3814 H   0  0  0  0  0  0  0  0  0  0  0  0
    3.8286   -2.1957   -3.2048 H   0  0  0  0  0  0  0  0  0  0  0  0
    3.2366   -0.5461   -2.9491 H   0  0  0  0  0  0  0  0  0  0  0  0
    4.8546   -0.8323   -3.6774 H   0  0  0  0  0  0  0  0  0  0  0  0
    6.5635    0.4765   -2.3797 H   0  0  0  0  0  0  0  0  0  0  0  0
    6.8975    2.7405   -1.4286 H   0  0  0  0  0  0  0  0  0  0  0  0
    5.4452    3.5551    0.3679 H   0  0  0  0  0  0  0  0  0  0  0  0
    2.3924    3.6743    2.3680 H   0  0  0  0  0  0  0  0  0  0  0  0
    3.1135    4.0983    0.8093 H   0  0  0  0  0  0  0  0  0  0  0  0
    4.1443    3.8927    2.2727 H   0  0  0  0  0  0  0  0  0  0  0  0
    4.2718   -1.3993    1.8106 H   0  0  0  0  0  0  0  0  0  0  0  0
   -1.0806   -2.8371    1.9095 H   0  0  0  0  0  0  0  0  0  0  0  0
   -0.4472   -4.3564    3.6950 H   0  0  0  0  0  0  0  0  0  0  0  0
    1.9184   -4.5180    4.4326 H   0  0  0  0  0  0  0  0  0  0  0  0
    3.6281   -3.1081    3.3712 H   0  0  0  0  0  0  0  0  0  0  0  0
   -3.0118    1.7183   -4.4311 H   0  0  0  0  0  0  0  0  0  0  0  0
   -4.1462    0.9345   -3.3189 H   0  0  0  0  0  0  0  0  0  0  0  0
   -4.4101    2.6336   -3.8428 H   0  0  0  0  0  0  0  0  0  0  0  0
   -4.2579    4.4350   -1.8676 H   0  0  0  0  0  0  0  0  0  0  0  0
   -5.5989    4.7264    0.1972 H   0  0  0  0  0  0  0  0  0  0  0  0
   -5.6457    2.9214    1.8991 H   0  0  0  0  0  0  0  0  0  0  0  0
   -3.9110    1.7944    3.4369 H   0  0  0  0  0  0  0  0  0  0  0  0
   -3.4518    0.0846    3.4933 H   0  0  0  0  0  0  0  0  0  0  0  0
   -2.4921    1.2001    2.5074 H   0  0  0  0  0  0  0  0  0  0  0  0
   -4.5267   -0.9381   -1.1798 H   0  0  0  0  0  0  0  0  0  0  0  0
    0.2656   -3.6883   -0.7011 H   0  0  0  0  0  0  0  0  0  0  0  0
   -0.9763   -5.6239   -1.5054 H   0  0  0  0  0  0  0  0  0  0  0  0
   -3.3924   -5.4335   -2.0445 H   0  0  0  0  0  0  0  0  0  0  0  0
   -4.5392   -3.2750   -1.7880 H   0  0  0  0  0  0  0  0  0  0  0  0
  2  1  2  0  0  0  0
  2 27  1  0  0  0  0
  3  2  1  0  0  0  0
  4  2  1  0  0  0  0
  4  5  1  0  0  0  0
  5 24  2  0  0  0  0
  5  6  1  0  0  0  0
  6 17  2  0  0  0  0
  7  6  1  0  0  0  0
  7 14  2  0  0  0  0
  8  7  1  0  0  0  0
  9  8  1  0  0  0  0
 10  9  1  0  0  0  0
 11  8  2  0  0  0  0
 11 12  1  0  0  0  0
 12 13  2  0  0  0  0
 13 52  1  0  0  0  0
 13 14  1  0  0  0  0
 14 15  1  0  0  0  0
 15 16  1  0  0  0  0
 16 55  1  0  0  0  0
 16 53  1  0  0  0  0
 17 56  1  0  0  0  0
 17 18  1  0  0  0  0
 18 23  1  0  0  0  0
 19 18  2  0  0  0  0
 19 20  1  0  0  0  0
 20 21  2  0  0  0  0
 21 22  1  0  0  0  0
 21 58  1  0  0  0  0
 22 59  1  0  0  0  0
 23 60  1  0  0  0  0
 23 22  2  0  0  0  0
 24 19  1  0  0  0  0
 25 24  1  0  0  0  0
 26 25  1  0  0  0  0
 26 27  1  0  0  0  0
 28 29  1  0  0  0  0
 28 26  2  0  0  0  0
 29 36  2  0  0  0  0
 30 33  2  0  0  0  0
 30 29  1  0  0  0  0
 31 30  1  0  0  0  0
 32 62  1  0  0  0  0
 32 31  1  0  0  0  0
 33 34  1  0  0  0  0
 34 65  1  0  0  0  0
 34 35  2  0  0  0  0
 35 66  1  0  0  0  0
 36 35  1  0  0  0  0
 36 37  1  0  0  0  0
 37 38  1  0  0  0  0
 38 67  1  0  0  0  0
 38 68  1  0  0  0  0
 39 28  1  0  0  0  0
 40 39  2  0  0  0  0
 40 41  1  0  0  0  0
 41 25  2  0  0  0  0
 42 41  1  0  0  0  0
 42 71  1  0  0  0  0
 43 42  2  0  0  0  0
 44 45  2  0  0  0  0
 44 43  1  0  0  0  0
 45 40  1  0  0  0  0
 46  3  1  0  0  0  0
 47 10  1  0  0  0  0
 48 10  1  0  0  0  0
 49 10  1  0  0  0  0
 50 11  1  0  0  0  0
 51 12  1  0  0  0  0
 54 16  1  0  0  0  0
 57 20  1  0  0  0  0
 61 32  1  0  0  0  0
 63 32  1  0  0  0  0
 64 33  1  0  0  0  0
 69 38  1  0  0  0  0
 70 39  1  0  0  0  0
 72 43  1  0  0  0  0
 73 44  1  0  0  0  0
 74 45  1  0  0  0  0
M  END
$$$$
