O=P1(O)OC2=C(C3=C(C4=CC(C=CC=C5)=C5C=C4)C=CC=C3)C=C6C(CCCC6)=C2C7=C(O1)C(C8=CC=CC=C8C9=CC=C(C=CC=C%10)C%10=C9)=CC%11=C7CCCC%11
 OpenBabel09032010383D

 98108  0  0  0  0  0  0  0  0999 V2000
    0.6145   -0.7167    3.4852 O   0  0  0  0  0  0  0  0  0  0  0  0
    0.4584    0.6191    2.8280 P   0  0  0  0  0  0  0  0  0  0  0  0
    0.2017    1.7556    3.9425 O   0  0  0  0  0  0  0  0  0  0  0  0
    1.7303    1.1817    2.0154 O   0  0  0  0  0  0  0  0  0  0  0  0
    1.8936    0.7630    0.7132 C   0  0  0  0  0  0  0  0  0  0  0  0
    3.0032   -0.0519    0.4209 C   0  0  0  0  0  0  0  0  0  0  0  0
    3.9858   -0.4644    1.4502 C   0  0  0  0  0  0  0  0  0  0  0  0
    4.2099   -1.8238    1.7986 C   0  0  0  0  0  0  0  0  0  0  0  0
    3.4605   -2.9337    1.1851 C   0  0  0  0  0  0  0  0  0  0  0  0
    4.0563   -3.7468    0.2070 C   0  0  0  0  0  0  0  0  0  0  0  0
    3.3386   -4.7765   -0.4246 C   0  0  0  0  0  0  0  0  0  0  0  0
    3.9241   -5.5738   -1.4202 C   0  0  0  0  0  0  0  0  0  0  0  0
    3.1907   -6.5831   -2.0453 C   0  0  0  0  0  0  0  0  0  0  0  0
    1.8664   -6.8105   -1.6823 C   0  0  0  0  0  0  0  0  0  0  0  0
    1.2715   -6.0306   -0.6914 C   0  0  0  0  0  0  0  0  0  0  0  0
    1.9947   -5.0105   -0.0554 C   0  0  0  0  0  0  0  0  0  0  0  0
    1.4091   -4.2179    0.9394 C   0  0  0  0  0  0  0  0  0  0  0  0
    2.1357   -3.1954    1.5519 C   0  0  0  0  0  0  0  0  0  0  0  0
    5.1805   -2.1299    2.7734 C   0  0  0  0  0  0  0  0  0  0  0  0
    5.9189   -1.1266    3.4000 C   0  0  0  0  0  0  0  0  0  0  0  0
    5.7018    0.2033    3.0629 C   0  0  0  0  0  0  0  0  0  0  0  0
    4.7482    0.5292    2.0979 C   0  0  0  0  0  0  0  0  0  0  0  0
    3.1616   -0.4691   -0.9048 C   0  0  0  0  0  0  0  0  0  0  0  0
    2.2127   -0.1682   -1.8912 C   0  0  0  0  0  0  0  0  0  0  0  0
    1.0958    0.6331   -1.5665 C   0  0  0  0  0  0  0  0  0  0  0  0
   -0.0100    0.8231   -2.5987 C   0  0  0  0  0  0  0  0  0  0  0  0
    0.0232   -0.1981   -3.7344 C   0  0  0  0  0  0  0  0  0  0  0  0
    1.4276   -0.2833   -4.3085 C   0  0  0  0  0  0  0  0  0  0  0  0
    2.3903   -0.8068   -3.2496 C   0  0  0  0  0  0  0  0  0  0  0  0
    0.9681    1.2078   -0.2642 C   0  0  0  0  0  0  0  0  0  0  0  0
   -0.0505    2.1663    0.0694 C   0  0  0  0  0  0  0  0  0  0  0  0
   -0.9688    1.8947    1.1080 C   0  0  0  0  0  0  0  0  0  0  0  0
   -0.8213    0.7522    1.8609 O   0  0  0  0  0  0  0  0  0  0  0  0
   -2.0749    2.7115    1.4029 C   0  0  0  0  0  0  0  0  0  0  0  0
   -3.0412    2.3607    2.4596 C   0  0  0  0  0  0  0  0  0  0  0  0
   -2.9346    2.9990    3.7112 C   0  0  0  0  0  0  0  0  0  0  0  0
   -3.7984    2.6824    4.7592 C   0  0  0  0  0  0  0  0  0  0  0  0
   -4.7857    1.7217    4.5744 C   0  0  0  0  0  0  0  0  0  0  0  0
   -4.9129    1.0828    3.3403 C   0  0  0  0  0  0  0  0  0  0  0  0
   -4.0543    1.3893    2.2670 C   0  0  0  0  0  0  0  0  0  0  0  0
   -4.2497    0.6955    0.9826 C   0  0  0  0  0  0  0  0  0  0  0  0
   -4.8386    1.3542   -0.1045 C   0  0  0  0  0  0  0  0  0  0  0  0
   -5.0316    0.6960   -1.3215 C   0  0  0  0  0  0  0  0  0  0  0  0
   -4.6473   -0.6430   -1.4793 C   0  0  0  0  0  0  0  0  0  0  0  0
   -4.8429   -1.3212   -2.6931 C   0  0  0  0  0  0  0  0  0  0  0  0
   -4.4618   -2.6564   -2.8332 C   0  0  0  0  0  0  0  0  0  0  0  0
   -3.8782   -3.3285   -1.7634 C   0  0  0  0  0  0  0  0  0  0  0  0
   -3.6741   -2.6668   -0.5514 C   0  0  0  0  0  0  0  0  0  0  0  0
   -4.0542   -1.3241   -0.3927 C   0  0  0  0  0  0  0  0  0  0  0  0
   -3.8611   -0.6445    0.8229 C   0  0  0  0  0  0  0  0  0  0  0  0
   -2.2381    3.8872    0.6688 C   0  0  0  0  0  0  0  0  0  0  0  0
   -1.3063    4.2682   -0.3046 C   0  0  0  0  0  0  0  0  0  0  0  0
   -0.2078    3.4225   -0.5999 C   0  0  0  0  0  0  0  0  0  0  0  0
    0.9136    3.9767   -1.4718 C   0  0  0  0  0  0  0  0  0  0  0  0
    0.4567    5.0601   -2.4445 C   0  0  0  0  0  0  0  0  0  0  0  0
   -0.2995    6.1439   -1.6948 C   0  0  0  0  0  0  0  0  0  0  0  0
   -1.5494    5.5620   -1.0475 C   0  0  0  0  0  0  0  0  0  0  0  0
   -0.3340    1.3744    4.6616 H   0  0  0  0  0  0  0  0  0  0  0  0
    5.0889   -3.5555   -0.0795 H   0  0  0  0  0  0  0  0  0  0  0  0
    4.9583   -5.4157   -1.7193 H   0  0  0  0  0  0  0  0  0  0  0  0
    3.6556   -7.1927   -2.8158 H   0  0  0  0  0  0  0  0  0  0  0  0
    1.2960   -7.5970   -2.1689 H   0  0  0  0  0  0  0  0  0  0  0  0
    0.2364   -6.2230   -0.4188 H   0  0  0  0  0  0  0  0  0  0  0  0
    0.3793   -4.3835    1.2471 H   0  0  0  0  0  0  0  0  0  0  0  0
    1.6545   -2.5977    2.3216 H   0  0  0  0  0  0  0  0  0  0  0  0
    5.3544   -3.1671    3.0556 H   0  0  0  0  0  0  0  0  0  0  0  0
    6.6576   -1.3863    4.1535 H   0  0  0  0  0  0  0  0  0  0  0  0
    6.2699    0.9909    3.5499 H   0  0  0  0  0  0  0  0  0  0  0  0
    4.5944    1.5773    1.8461 H   0  0  0  0  0  0  0  0  0  0  0  0
    4.0177   -1.0883   -1.1692 H   0  0  0  0  0  0  0  0  0  0  0  0
    0.0692    1.8210   -3.0396 H   0  0  0  0  0  0  0  0  0  0  0  0
   -0.9898    0.7465   -2.1121 H   0  0  0  0  0  0  0  0  0  0  0  0
   -0.2915   -1.1831   -3.3668 H   0  0  0  0  0  0  0  0  0  0  0  0
   -0.6875    0.0971   -4.5145 H   0  0  0  0  0  0  0  0  0  0  0  0
    1.4440   -0.9444   -5.1821 H   0  0  0  0  0  0  0  0  0  0  0  0
    1.7487    0.7090   -4.6501 H   0  0  0  0  0  0  0  0  0  0  0  0
    2.2385   -1.8880   -3.1349 H   0  0  0  0  0  0  0  0  0  0  0  0
    3.4183   -0.6530   -3.5991 H   0  0  0  0  0  0  0  0  0  0  0  0
   -2.1585    3.7464    3.8719 H   0  0  0  0  0  0  0  0  0  0  0  0
   -3.7000    3.1868    5.7168 H   0  0  0  0  0  0  0  0  0  0  0  0
   -5.4635    1.4711    5.3864 H   0  0  0  0  0  0  0  0  0  0  0  0
   -5.6988    0.3404    3.2091 H   0  0  0  0  0  0  0  0  0  0  0  0
   -5.1513    2.3915   -0.0078 H   0  0  0  0  0  0  0  0  0  0  0  0
   -5.4888    1.2389   -2.1452 H   0  0  0  0  0  0  0  0  0  0  0  0
   -5.2965   -0.8119   -3.5400 H   0  0  0  0  0  0  0  0  0  0  0  0
   -4.6215   -3.1707   -3.7771 H   0  0  0  0  0  0  0  0  0  0  0  0
   -3.5818   -4.3687   -1.8704 H   0  0  0  0  0  0  0  0  0  0  0  0
   -3.2157   -3.2095    0.2725 H   0  0  0  0  0  0  0  0  0  0  0  0
   -3.3929   -1.1614    1.6592 H   0  0  0  0  0  0  0  0  0  0  0  0
   -3.0937    4.5288    0.8752 H   0  0  0  0  0  0  0  0  0  0  0  0
    1.6679    4.4000   -0.7948 H   0  0  0  0  0  0  0  0  0  0  0  0
    1.4210    3.2042   -2.0506 H   0  0  0  0  0  0  0  0  0  0  0  0
    1.3284    5.4932   -2.9478 H   0  0  0  0  0  0  0  0  0  0  0  0
   -0.1841    4.6246   -3.2214 H   0  0  0  0  0  0  0  0  0  0  0  0
    0.3497    6.5818   -0.9261 H   0  0  0  0  0  0  0  0  0  0  0  0
   -0.5793    6.9538   -2.3777 H   0  0  0  0  0  0  0  0  0  0  0  0
   -1.9690    6.3125   -0.3665 H   0  0  0  0  0  0  0  0  0  0  0  0
   -2.3017    5.3662   -1.8222 H   0  0  0  0  0  0  0  0  0  0  0  0
  2  1  2  0  0  0  0
  2  3  1  0  0  0  0
  3 58  1  0  0  0  0
  4  2  1  0  0  0  0
  5  4  1  0  0  0  0
  6  5  1  0  0  0  0
  6  7  1  0  0  0  0
  7  8  2  0  0  0  0
  7 22  1  0  0  0  0
  8 19  1  0  0  0  0
  9 18  1  0  0  0  0
  9  8  1  0  0  0  0
 10  9  2  0  0  0  0
 11 16  1  0  0  0  0
 11 10  1  0  0  0  0
 12 11  2  0  0  0  0
 13 14  2  0  0  0  0
 13 12  1  0  0  0  0
 14 15  1  0  0  0  0
 15 63  1  0  0  0  0
 15 16  2  0  0  0  0
 16 17  1  0  0  0  0
 17 64  1  0  0  0  0
 17 18  2  0  0  0  0
 18 65  1  0  0  0  0
 19 66  1  0  0  0  0
 19 20  2  0  0  0  0
 20 67  1  0  0  0  0
 21 20  1  0  0  0  0
 21 68  1  0  0  0  0
 22 21  2  0  0  0  0
 23  6  2  0  0  0  0
 24 25  2  0  0  0  0
 24 23  1  0  0  0  0
 25 30  1  0  0  0  0
 26 72  1  0  0  0  0
 26 25  1  0  0  0  0
 27 73  1  0  0  0  0
 27 26  1  0  0  0  0
 28 27  1  0  0  0  0
 28 29  1  0  0  0  0
 29 77  1  0  0  0  0
 29 24  1  0  0  0  0
 30 31  1  0  0  0  0
 30  5  2  0  0  0  0
 31 32  2  0  0  0  0
 32 34  1  0  0  0  0
 32 33  1  0  0  0  0
 33  2  1  0  0  0  0
 34 35  1  0  0  0  0
 35 36  1  0  0  0  0
 36 79  1  0  0  0  0
 36 37  2  0  0  0  0
 37 80  1  0  0  0  0
 38 37  1  0  0  0  0
 38 81  1  0  0  0  0
 39 38  2  0  0  0  0
 40 35  2  0  0  0  0
 40 39  1  0  0  0  0
 41 40  1  0  0  0  0
 42 83  1  0  0  0  0
 42 41  2  0  0  0  0
 43 42  1  0  0  0  0
 44 43  2  0  0  0  0
 44 49  1  0  0  0  0
 45 44  1  0  0  0  0
 46 45  2  0  0  0  0
 46 47  1  0  0  0  0
 47 48  2  0  0  0  0
 48 49  1  0  0  0  0
 48 88  1  0  0  0  0
 49 50  2  0  0  0  0
 50 41  1  0  0  0  0
 50 89  1  0  0  0  0
 51 90  1  0  0  0  0
 51 34  2  0  0  0  0
 52 51  1  0  0  0  0
 53 52  2  0  0  0  0
 53 31  1  0  0  0  0
 54 91  1  0  0  0  0
 54 53  1  0  0  0  0
 55 56  1  0  0  0  0
 55 54  1  0  0  0  0
 56 57  1  0  0  0  0
 56 95  1  0  0  0  0
 57 97  1  0  0  0  0
 57 52  1  0  0  0  0
 59 10  1  0  0  0  0
 60 12  1  0  0  0  0
 61 13  1  0  0  0  0
 62 14  1  0  0  0  0
 69 22  1  0  0  0  0
 70 23  1  0  0  0  0
 71 26  1  0  0  0  0
 74 27  1  0  0  0  0
 75 28  1  0  0  0  0
 76 28  1  0  0  0  0
 78 29  1  0  0  0  0
 82 39  1  0  0  0  0
 84 43  1  0  0  0  0
 85 45  1  0  0  0  0
 86 46  1  0  0  0  0
 87 47  1  0  0  0  0
 92 54  1  0  0  0  0
 93 55  1  0  0  0  0
 94 55  1  0  0  0  0
 96 56  1  0  0  0  0
 98 57  1  0  0  0  0
M  END
$$$$
