O=P1(O)OC2=C(C3=CC(C4=C(C)C=C(C)C=C4C)=CC(C5=C(C)C=C(C)C=C5C)=C3)C=C6C(CCCC6)=C2C7=C(O1)C(C8=CC(C9=C(C)C=C(C)C=C9C)=CC(C%10=C(C)C=C(C)C=C%10C)=C8)=CC%11=C7CCCC%11
 OpenBabel09032010383D

142152  0  0  0  0  0  0  0  0999 V2000
    0.8260   -0.6828    1.2989 O   0  0  0  0  0  0  0  0  0  0  0  0
    0.1755    0.0281    0.1522 P   0  0  0  0  0  0  0  0  0  0  0  0
   -0.5408    1.3670    0.6850 O   0  0  0  0  0  0  0  0  0  0  0  0
   -0.9979   -0.7978   -0.5815 O   0  0  0  0  0  0  0  0  0  0  0  0
   -1.4649   -0.3802   -1.8100 C   0  0  0  0  0  0  0  0  0  0  0  0
   -2.8324   -0.0566   -1.8924 C   0  0  0  0  0  0  0  0  0  0  0  0
   -3.7355   -0.1832   -0.7404 C   0  0  0  0  0  0  0  0  0  0  0  0
   -4.6543   -1.2400   -0.6631 C   0  0  0  0  0  0  0  0  0  0  0  0
   -5.4990   -1.3940    0.4473 C   0  0  0  0  0  0  0  0  0  0  0  0
   -6.4637   -2.5055    0.5073 C   0  0  0  0  0  0  0  0  0  0  0  0
   -6.1060   -3.7415    1.1000 C   0  0  0  0  0  0  0  0  0  0  0  0
   -4.7354   -3.9647    1.6870 C   0  0  0  0  0  0  0  0  0  0  0  0
   -7.0397   -4.7910    1.1477 C   0  0  0  0  0  0  0  0  0  0  0  0
   -8.3257   -4.6373    0.6249 C   0  0  0  0  0  0  0  0  0  0  0  0
   -9.2990   -5.7785    0.6516 C   0  0  0  0  0  0  0  0  0  0  0  0
   -8.6731   -3.4239    0.0263 C   0  0  0  0  0  0  0  0  0  0  0  0
   -7.7642   -2.3548   -0.0327 C   0  0  0  0  0  0  0  0  0  0  0  0
   -8.2036   -1.0666   -0.6810 C   0  0  0  0  0  0  0  0  0  0  0  0
   -5.4027   -0.4737    1.5014 C   0  0  0  0  0  0  0  0  0  0  0  0
   -4.4931    0.5915    1.4537 C   0  0  0  0  0  0  0  0  0  0  0  0
   -4.3625    1.5261    2.5842 C   0  0  0  0  0  0  0  0  0  0  0  0
   -3.5188    1.2115    3.6794 C   0  0  0  0  0  0  0  0  0  0  0  0
   -2.7587   -0.0899    3.7425 C   0  0  0  0  0  0  0  0  0  0  0  0
   -3.4011    2.1115    4.7522 C   0  0  0  0  0  0  0  0  0  0  0  0
   -4.0850    3.3297    4.7513 C   0  0  0  0  0  0  0  0  0  0  0  0
   -3.9738    4.2661    5.9184 C   0  0  0  0  0  0  0  0  0  0  0  0
   -4.9235    3.6353    3.6761 C   0  0  0  0  0  0  0  0  0  0  0  0
   -5.0715    2.7512    2.5940 C   0  0  0  0  0  0  0  0  0  0  0  0
   -5.9880    3.1393    1.4618 C   0  0  0  0  0  0  0  0  0  0  0  0
   -3.6854    0.7362    0.3163 C   0  0  0  0  0  0  0  0  0  0  0  0
   -3.3285    0.3906   -3.1186 C   0  0  0  0  0  0  0  0  0  0  0  0
   -2.4877    0.5577   -4.2275 C   0  0  0  0  0  0  0  0  0  0  0  0
   -1.1172    0.2201   -4.1275 C   0  0  0  0  0  0  0  0  0  0  0  0
   -0.1824    0.5742   -5.2779 C   0  0  0  0  0  0  0  0  0  0  0  0
   -0.7585    1.6040   -6.2488 C   0  0  0  0  0  0  0  0  0  0  0  0
   -2.1543    1.1802   -6.6741 C   0  0  0  0  0  0  0  0  0  0  0  0
   -3.0856    1.1816   -5.4682 C   0  0  0  0  0  0  0  0  0  0  0  0
   -0.5941   -0.3599   -2.9292 C   0  0  0  0  0  0  0  0  0  0  0  0
    0.7430   -0.8816   -2.8316 C   0  0  0  0  0  0  0  0  0  0  0  0
    1.6408   -0.3394   -1.8884 C   0  0  0  0  0  0  0  0  0  0  0  0
    1.1649    0.5859   -0.9891 O   0  0  0  0  0  0  0  0  0  0  0  0
    2.9984   -0.6925   -1.7978 C   0  0  0  0  0  0  0  0  0  0  0  0
    3.8868   -0.0783   -0.8001 C   0  0  0  0  0  0  0  0  0  0  0  0
    4.4453   -0.8486    0.2303 C   0  0  0  0  0  0  0  0  0  0  0  0
    5.2109   -0.2627    1.2499 C   0  0  0  0  0  0  0  0  0  0  0  0
    5.7332   -1.0814    2.3577 C   0  0  0  0  0  0  0  0  0  0  0  0
    4.8807   -1.4795    3.4175 C   0  0  0  0  0  0  0  0  0  0  0  0
    3.4179   -1.1139    3.4463 C   0  0  0  0  0  0  0  0  0  0  0  0
    5.3832   -2.2777    4.4569 C   0  0  0  0  0  0  0  0  0  0  0  0
    6.7214   -2.6787    4.4788 C   0  0  0  0  0  0  0  0  0  0  0  0
    7.2525   -3.4928    5.6210 C   0  0  0  0  0  0  0  0  0  0  0  0
    7.5698   -2.2635    3.4493 C   0  0  0  0  0  0  0  0  0  0  0  0
    7.0911   -1.4838    2.3824 C   0  0  0  0  0  0  0  0  0  0  0  0
    8.0531   -1.0821    1.2937 C   0  0  0  0  0  0  0  0  0  0  0  0
    5.4276    1.1226    1.2188 C   0  0  0  0  0  0  0  0  0  0  0  0
    4.8963    1.9186    0.1948 C   0  0  0  0  0  0  0  0  0  0  0  0
    5.0921    3.3784    0.1958 C   0  0  0  0  0  0  0  0  0  0  0  0
    4.0987    4.2340    0.7345 C   0  0  0  0  0  0  0  0  0  0  0  0
    2.8186    3.6880    1.3159 C   0  0  0  0  0  0  0  0  0  0  0  0
    4.2922    5.6255    0.7213 C   0  0  0  0  0  0  0  0  0  0  0  0
    5.4529    6.1884    0.1847 C   0  0  0  0  0  0  0  0  0  0  0  0
    5.6616    7.6735    0.2135 C   0  0  0  0  0  0  0  0  0  0  0  0
    6.4411    5.3439   -0.3278 C   0  0  0  0  0  0  0  0  0  0  0  0
    6.2720    3.9490   -0.3397 C   0  0  0  0  0  0  0  0  0  0  0  0
    7.3682    3.0914   -0.9181 C   0  0  0  0  0  0  0  0  0  0  0  0
    4.1375    1.3025   -0.8111 C   0  0  0  0  0  0  0  0  0  0  0  0
    3.4673   -1.6826   -2.6614 C   0  0  0  0  0  0  0  0  0  0  0  0
    2.6066   -2.3359   -3.5570 C   0  0  0  0  0  0  0  0  0  0  0  0
    1.2405   -1.9675   -3.6200 C   0  0  0  0  0  0  0  0  0  0  0  0
    0.2843   -2.8065   -4.4576 C   0  0  0  0  0  0  0  0  0  0  0  0
    0.8322   -4.1846   -4.8258 C   0  0  0  0  0  0  0  0  0  0  0  0
    2.2274   -4.0405   -5.4105 C   0  0  0  0  0  0  0  0  0  0  0  0
    3.1770   -3.4865   -4.3555 C   0  0  0  0  0  0  0  0  0  0  0  0
   -0.6299    1.3203    1.6550 H   0  0  0  0  0  0  0  0  0  0  0  0
   -4.7075   -1.9651   -1.4744 H   0  0  0  0  0  0  0  0  0  0  0  0
   -4.5554   -3.2703    2.5137 H   0  0  0  0  0  0  0  0  0  0  0  0
   -4.6299   -4.9798    2.0850 H   0  0  0  0  0  0  0  0  0  0  0  0
   -3.9641   -3.8346    0.9213 H   0  0  0  0  0  0  0  0  0  0  0  0
   -6.7596   -5.7410    1.5996 H   0  0  0  0  0  0  0  0  0  0  0  0
   -9.1339   -6.4127    1.5289 H   0  0  0  0  0  0  0  0  0  0  0  0
  -10.3296   -5.4122    0.7062 H   0  0  0  0  0  0  0  0  0  0  0  0
   -9.1870   -6.3868   -0.2511 H   0  0  0  0  0  0  0  0  0  0  0  0
   -9.6678   -3.3064   -0.3989 H   0  0  0  0  0  0  0  0  0  0  0  0
   -9.2458   -1.1200   -1.0138 H   0  0  0  0  0  0  0  0  0  0  0  0
   -7.5902   -0.8532   -1.5621 H   0  0  0  0  0  0  0  0  0  0  0  0
   -8.1328   -0.2357    0.0281 H   0  0  0  0  0  0  0  0  0  0  0  0
   -6.0425   -0.5929    2.3750 H   0  0  0  0  0  0  0  0  0  0  0  0
   -2.0654   -0.1070    4.5904 H   0  0  0  0  0  0  0  0  0  0  0  0
   -2.1593   -0.2357    2.8385 H   0  0  0  0  0  0  0  0  0  0  0  0
   -3.4519   -0.9281    3.8634 H   0  0  0  0  0  0  0  0  0  0  0  0
   -2.7680    1.8581    5.6010 H   0  0  0  0  0  0  0  0  0  0  0  0
   -2.9878    4.1891    6.3886 H   0  0  0  0  0  0  0  0  0  0  0  0
   -4.7404    4.0290    6.6624 H   0  0  0  0  0  0  0  0  0  0  0  0
   -4.0998    5.3058    5.5986 H   0  0  0  0  0  0  0  0  0  0  0  0
   -5.4739    4.5745    3.6811 H   0  0  0  0  0  0  0  0  0  0  0  0
   -6.5053    4.0821    1.6699 H   0  0  0  0  0  0  0  0  0  0  0  0
   -6.7580    2.3760    1.3107 H   0  0  0  0  0  0  0  0  0  0  0  0
   -5.4167    3.2750    0.5381 H   0  0  0  0  0  0  0  0  0  0  0  0
   -2.9932    1.5754    0.2614 H   0  0  0  0  0  0  0  0  0  0  0  0
   -4.3812    0.6602   -3.1991 H   0  0  0  0  0  0  0  0  0  0  0  0
    0.0551   -0.3233   -5.8508 H   0  0  0  0  0  0  0  0  0  0  0  0
    0.7567    0.9792   -4.8824 H   0  0  0  0  0  0  0  0  0  0  0  0
   -0.1055    1.6883   -7.1248 H   0  0  0  0  0  0  0  0  0  0  0  0
   -0.7941    2.5934   -5.7756 H   0  0  0  0  0  0  0  0  0  0  0  0
   -2.5428    1.8580   -7.4423 H   0  0  0  0  0  0  0  0  0  0  0  0
   -2.1178    0.1777   -7.1189 H   0  0  0  0  0  0  0  0  0  0  0  0
   -3.3508    2.2193   -5.2276 H   0  0  0  0  0  0  0  0  0  0  0  0
   -4.0115    0.6579   -5.7353 H   0  0  0  0  0  0  0  0  0  0  0  0
    4.2445   -1.9187    0.2711 H   0  0  0  0  0  0  0  0  0  0  0  0
    3.2605   -0.0678    3.1664 H   0  0  0  0  0  0  0  0  0  0  0  0
    2.8613   -1.7673    2.7684 H   0  0  0  0  0  0  0  0  0  0  0  0
    2.9998   -1.2335    4.4519 H   0  0  0  0  0  0  0  0  0  0  0  0
    4.7206   -2.5883    5.2626 H   0  0  0  0  0  0  0  0  0  0  0  0
    7.6125   -2.8322    6.4156 H   0  0  0  0  0  0  0  0  0  0  0  0
    6.4752   -4.1473    6.0294 H   0  0  0  0  0  0  0  0  0  0  0  0
    8.0770   -4.1348    5.2935 H   0  0  0  0  0  0  0  0  0  0  0  0
    8.6180   -2.5569    3.4733 H   0  0  0  0  0  0  0  0  0  0  0  0
    9.0115   -1.6029    1.3950 H   0  0  0  0  0  0  0  0  0  0  0  0
    7.6535   -1.3401    0.3077 H   0  0  0  0  0  0  0  0  0  0  0  0
    8.2529   -0.0071    1.3409 H   0  0  0  0  0  0  0  0  0  0  0  0
    6.0009    1.5917    2.0174 H   0  0  0  0  0  0  0  0  0  0  0  0
    2.2069    3.2332    0.5306 H   0  0  0  0  0  0  0  0  0  0  0  0
    2.2216    4.4792    1.7824 H   0  0  0  0  0  0  0  0  0  0  0  0
    3.0308    2.9474    2.0936 H   0  0  0  0  0  0  0  0  0  0  0  0
    3.5267    6.2784    1.1365 H   0  0  0  0  0  0  0  0  0  0  0  0
    6.2789    7.9980   -0.6309 H   0  0  0  0  0  0  0  0  0  0  0  0
    6.1560    7.9637    1.1456 H   0  0  0  0  0  0  0  0  0  0  0  0
    4.7066    8.2041    0.1390 H   0  0  0  0  0  0  0  0  0  0  0  0
    7.3554    5.7772   -0.7290 H   0  0  0  0  0  0  0  0  0  0  0  0
    8.1591    3.7015   -1.3677 H   0  0  0  0  0  0  0  0  0  0  0  0
    6.9754    2.4429   -1.7077 H   0  0  0  0  0  0  0  0  0  0  0  0
    7.8282    2.4812   -0.1344 H   0  0  0  0  0  0  0  0  0  0  0  0
    3.7049    1.9194   -1.5983 H   0  0  0  0  0  0  0  0  0  0  0  0
    4.5132   -1.9837   -2.6086 H   0  0  0  0  0  0  0  0  0  0  0  0
    0.0526   -2.2839   -5.3870 H   0  0  0  0  0  0  0  0  0  0  0  0
   -0.6552   -2.9562   -3.9125 H   0  0  0  0  0  0  0  0  0  0  0  0
    0.1654   -4.6628   -5.5521 H   0  0  0  0  0  0  0  0  0  0  0  0
    0.8614   -4.8307   -3.9394 H   0  0  0  0  0  0  0  0  0  0  0  0
    2.5950   -5.0093   -5.7667 H   0  0  0  0  0  0  0  0  0  0  0  0
    2.1979   -3.3695   -6.2783 H   0  0  0  0  0  0  0  0  0  0  0  0
    4.1060   -3.1708   -4.8456 H   0  0  0  0  0  0  0  0  0  0  0  0
    3.4311   -4.2899   -3.6520 H   0  0  0  0  0  0  0  0  0  0  0  0
  2  3  1  0  0  0  0
  2  1  2  0  0  0  0
  3 74  1  0  0  0  0
  4  2  1  0  0  0  0
  5  4  1  0  0  0  0
  6  5  1  0  0  0  0
  6  7  1  0  0  0  0
  7  8  2  0  0  0  0
  7 30  1  0  0  0  0
  8  9  1  0  0  0  0
  9 10  1  0  0  0  0
  9 19  2  0  0  0  0
 10 11  2  0  0  0  0
 11 13  1  0  0  0  0
 11 12  1  0  0  0  0
 12 77  1  0  0  0  0
 12 76  1  0  0  0  0
 13 79  1  0  0  0  0
 14 15  1  0  0  0  0
 14 13  2  0  0  0  0
 15 81  1  0  0  0  0
 15 80  1  0  0  0  0
 16 14  1  0  0  0  0
 17 16  2  0  0  0  0
 17 10  1  0  0  0  0
 18 17  1  0  0  0  0
 18 86  1  0  0  0  0
 19 87  1  0  0  0  0
 20 19  1  0  0  0  0
 20 21  1  0  0  0  0
 21 28  2  0  0  0  0
 21 22  1  0  0  0  0
 22 23  1  0  0  0  0
 22 24  2  0  0  0  0
 23 90  1  0  0  0  0
 23 88  1  0  0  0  0
 24 91  1  0  0  0  0
 25 24  1  0  0  0  0
 25 26  1  0  0  0  0
 26 92  1  0  0  0  0
 26 93  1  0  0  0  0
 27 95  1  0  0  0  0
 27 25  2  0  0  0  0
 28 27  1  0  0  0  0
 29 96  1  0  0  0  0
 29 28  1  0  0  0  0
 30 20  2  0  0  0  0
 31  6  2  0  0  0  0
 32 33  2  0  0  0  0
 32 31  1  0  0  0  0
 33 38  1  0  0  0  0
 34102  1  0  0  0  0
 34 33  1  0  0  0  0
 35104  1  0  0  0  0
 35 34  1  0  0  0  0
 36 35  1  0  0  0  0
 36 37  1  0  0  0  0
 37107  1  0  0  0  0
 37 32  1  0  0  0  0
 38 39  1  0  0  0  0
 38  5  2  0  0  0  0
 39 40  2  0  0  0  0
 40 42  1  0  0  0  0
 40 41  1  0  0  0  0
 41  2  1  0  0  0  0
 42 43  1  0  0  0  0
 43 44  1  0  0  0  0
 44109  1  0  0  0  0
 44 45  2  0  0  0  0
 45 46  1  0  0  0  0
 46 53  2  0  0  0  0
 46 47  1  0  0  0  0
 47 48  1  0  0  0  0
 47 49  2  0  0  0  0
 48112  1  0  0  0  0
 49 50  1  0  0  0  0
 49113  1  0  0  0  0
 50 51  1  0  0  0  0
 51115  1  0  0  0  0
 51114  1  0  0  0  0
 52117  1  0  0  0  0
 52 50  2  0  0  0  0
 53 52  1  0  0  0  0
 54120  1  0  0  0  0
 54118  1  0  0  0  0
 54 53  1  0  0  0  0
 55 45  1  0  0  0  0
 55121  1  0  0  0  0
 56 57  1  0  0  0  0
 56 55  2  0  0  0  0
 57 58  2  0  0  0  0
 58 59  1  0  0  0  0
 59123  1  0  0  0  0
 59124  1  0  0  0  0
 60 58  1  0  0  0  0
 60125  1  0  0  0  0
 61 62  1  0  0  0  0
 61 60  2  0  0  0  0
 62127  1  0  0  0  0
 63 61  1  0  0  0  0
 64 63  2  0  0  0  0
 64 57  1  0  0  0  0
 65 64  1  0  0  0  0
 65132  1  0  0  0  0
 66 43  2  0  0  0  0
 66 56  1  0  0  0  0
 67134  1  0  0  0  0
 67 42  2  0  0  0  0
 68 67  1  0  0  0  0
 69 68  2  0  0  0  0
 69 39  1  0  0  0  0
 70136  1  0  0  0  0
 70 69  1  0  0  0  0
 71 70  1  0  0  0  0
 71138  1  0  0  0  0
 72 71  1  0  0  0  0
 72 73  1  0  0  0  0
 73142  1  0  0  0  0
 73 68  1  0  0  0  0
 75  8  1  0  0  0  0
 78 12  1  0  0  0  0
 82 15  1  0  0  0  0
 83 16  1  0  0  0  0
 84 18  1  0  0  0  0
 85 18  1  0  0  0  0
 89 23  1  0  0  0  0
 94 26  1  0  0  0  0
 97 29  1  0  0  0  0
 98 29  1  0  0  0  0
 99 30  1  0  0  0  0
100 31  1  0  0  0  0
101 34  1  0  0  0  0
103 35  1  0  0  0  0
105 36  1  0  0  0  0
106 36  1  0  0  0  0
108 37  1  0  0  0  0
110 48  1  0  0  0  0
111 48  1  0  0  0  0
116 51  1  0  0  0  0
119 54  1  0  0  0  0
122 59  1  0  0  0  0
126 62  1  0  0  0  0
128 62  1  0  0  0  0
129 63  1  0  0  0  0
130 65  1  0  0  0  0
131 65  1  0  0  0  0
133 66  1  0  0  0  0
135 70  1  0  0  0  0
137 71  1  0  0  0  0
139 72  1  0  0  0  0
140 72  1  0  0  0  0
141 73  1  0  0  0  0
M  END
$$$$
