O=P1(O)OC2=C(C3=CC(C4=C(C)C=C(C)C=C4C)=CC(C5=C(C)C=C(C)C=C5C)=C3)C=C6C(CCCC6)=C2C7=C(O1)C(C8=CC(C9=C(C)C=C(C)C=C9C)=CC(C%10=C(C)C=C(C)C=C%10C)=C8)=CC%11=C7CCCC%11
 OpenBabel09032010383D

142152  0  0  0  0  0  0  0  0999 V2000
    0.6325   -0.4673    1.3277 O   0  0  0  0  0  0  0  0  0  0  0  0
    0.0668    0.0162    0.0286 P   0  0  0  0  0  0  0  0  0  0  0  0
   -0.6704    1.4348    0.2176 O   0  0  0  0  0  0  0  0  0  0  0  0
   -1.0410   -0.9327   -0.6559 O   0  0  0  0  0  0  0  0  0  0  0  0
   -1.4566   -0.6551   -1.9426 C   0  0  0  0  0  0  0  0  0  0  0  0
   -2.7958   -0.2498   -2.1082 C   0  0  0  0  0  0  0  0  0  0  0  0
   -3.7261   -0.1347   -0.9694 C   0  0  0  0  0  0  0  0  0  0  0  0
   -3.9501   -1.2203   -0.1086 C   0  0  0  0  0  0  0  0  0  0  0  0
   -4.7518   -1.1030    1.0368 C   0  0  0  0  0  0  0  0  0  0  0  0
   -4.8774   -2.2320    1.9748 C   0  0  0  0  0  0  0  0  0  0  0  0
   -6.0424   -3.0372    1.9944 C   0  0  0  0  0  0  0  0  0  0  0  0
   -7.2042   -2.7667    1.0730 C   0  0  0  0  0  0  0  0  0  0  0  0
   -6.1333   -4.1130    2.8949 C   0  0  0  0  0  0  0  0  0  0  0  0
   -5.0854   -4.4143    3.7692 C   0  0  0  0  0  0  0  0  0  0  0  0
   -5.1785   -5.5957    4.6889 C   0  0  0  0  0  0  0  0  0  0  0  0
   -3.9267   -3.6351    3.7329 C   0  0  0  0  0  0  0  0  0  0  0  0
   -3.8167   -2.5375    2.8649 C   0  0  0  0  0  0  0  0  0  0  0  0
   -2.5364   -1.7387    2.8851 C   0  0  0  0  0  0  0  0  0  0  0  0
   -5.3806    0.1221    1.2933 C   0  0  0  0  0  0  0  0  0  0  0  0
   -5.2078    1.2194    0.4376 C   0  0  0  0  0  0  0  0  0  0  0  0
   -5.8640    2.5057    0.7290 C   0  0  0  0  0  0  0  0  0  0  0  0
   -5.1900    3.5049    1.4737 C   0  0  0  0  0  0  0  0  0  0  0  0
   -3.7865    3.2927    1.9829 C   0  0  0  0  0  0  0  0  0  0  0  0
   -5.8313    4.7249    1.7481 C   0  0  0  0  0  0  0  0  0  0  0  0
   -7.1279    4.9781    1.2933 C   0  0  0  0  0  0  0  0  0  0  0  0
   -7.8129    6.2702    1.6273 C   0  0  0  0  0  0  0  0  0  0  0  0
   -7.7989    3.9865    0.5732 C   0  0  0  0  0  0  0  0  0  0  0  0
   -7.1825    2.7587    0.2780 C   0  0  0  0  0  0  0  0  0  0  0  0
   -7.9565    1.7300   -0.5063 C   0  0  0  0  0  0  0  0  0  0  0  0
   -4.3752    1.0771   -0.6844 C   0  0  0  0  0  0  0  0  0  0  0  0
   -3.2150    0.0746   -3.4006 C   0  0  0  0  0  0  0  0  0  0  0  0
   -2.3290    0.0483   -4.4883 C   0  0  0  0  0  0  0  0  0  0  0  0
   -0.9852   -0.3512   -4.2941 C   0  0  0  0  0  0  0  0  0  0  0  0
    0.0062   -0.1898   -5.4392 C   0  0  0  0  0  0  0  0  0  0  0  0
   -0.4724    0.7525   -6.5429 C   0  0  0  0  0  0  0  0  0  0  0  0
   -1.8746    0.3587   -6.9760 C   0  0  0  0  0  0  0  0  0  0  0  0
   -2.8469    0.5483   -5.8184 C   0  0  0  0  0  0  0  0  0  0  0  0
   -0.5397   -0.8061   -3.0133 C   0  0  0  0  0  0  0  0  0  0  0  0
    0.7723   -1.3468   -2.7750 C   0  0  0  0  0  0  0  0  0  0  0  0
    1.6329   -0.7172   -1.8461 C   0  0  0  0  0  0  0  0  0  0  0  0
    1.1402    0.3488   -1.1263 O   0  0  0  0  0  0  0  0  0  0  0  0
    2.9650   -1.1054   -1.6095 C   0  0  0  0  0  0  0  0  0  0  0  0
    3.8171   -0.4233   -0.6153 C   0  0  0  0  0  0  0  0  0  0  0  0
    3.9558    0.9738   -0.6097 C   0  0  0  0  0  0  0  0  0  0  0  0
    4.6800    1.6431    0.3888 C   0  0  0  0  0  0  0  0  0  0  0  0
    4.7183    3.1152    0.4157 C   0  0  0  0  0  0  0  0  0  0  0  0
    5.5737    3.8314   -0.4542 C   0  0  0  0  0  0  0  0  0  0  0  0
    6.4942    3.1261   -1.4172 C   0  0  0  0  0  0  0  0  0  0  0  0
    5.5594    5.2356   -0.4439 C   0  0  0  0  0  0  0  0  0  0  0  0
    4.7297    5.9485    0.4249 C   0  0  0  0  0  0  0  0  0  0  0  0
    4.7647    7.4475    0.4525 C   0  0  0  0  0  0  0  0  0  0  0  0
    3.9095    5.2424    1.3069 C   0  0  0  0  0  0  0  0  0  0  0  0
    3.8789    3.8378    1.3022 C   0  0  0  0  0  0  0  0  0  0  0  0
    2.9569    3.1356    2.2674 C   0  0  0  0  0  0  0  0  0  0  0  0
    5.3170    0.8853    1.3792 C   0  0  0  0  0  0  0  0  0  0  0  0
    5.2158   -0.5123    1.3980 C   0  0  0  0  0  0  0  0  0  0  0  0
    5.8440   -1.2951    2.4759 C   0  0  0  0  0  0  0  0  0  0  0  0
    7.2071   -1.6698    2.3961 C   0  0  0  0  0  0  0  0  0  0  0  0
    8.0613   -1.2848    1.2154 C   0  0  0  0  0  0  0  0  0  0  0  0
    7.7896   -2.4126    3.4371 C   0  0  0  0  0  0  0  0  0  0  0  0
    7.0476   -2.7914    4.5589 C   0  0  0  0  0  0  0  0  0  0  0  0
    7.6748   -3.6178    5.6423 C   0  0  0  0  0  0  0  0  0  0  0  0
    5.6974   -2.4397    4.6282 C   0  0  0  0  0  0  0  0  0  0  0  0
    5.0887   -1.6886    3.6087 C   0  0  0  0  0  0  0  0  0  0  0  0
    3.6267   -1.3390    3.7421 C   0  0  0  0  0  0  0  0  0  0  0  0
    4.4657   -1.1495    0.3965 C   0  0  0  0  0  0  0  0  0  0  0  0
    3.4431   -2.2064   -2.3243 C   0  0  0  0  0  0  0  0  0  0  0  0
    2.6168   -2.9339   -3.1958 C   0  0  0  0  0  0  0  0  0  0  0  0
    1.2732   -2.5353   -3.3927 C   0  0  0  0  0  0  0  0  0  0  0  0
    0.3400   -3.4421   -4.1836 C   0  0  0  0  0  0  0  0  0  0  0  0
    0.8555   -4.8720   -4.3401 C   0  0  0  0  0  0  0  0  0  0  0  0
    2.2874   -4.8448   -4.8484 C   0  0  0  0  0  0  0  0  0  0  0  0
    3.1928   -4.1888   -3.8132 C   0  0  0  0  0  0  0  0  0  0  0  0
   -0.1594    1.9944    0.8295 H   0  0  0  0  0  0  0  0  0  0  0  0
   -3.4589   -2.1723   -0.3093 H   0  0  0  0  0  0  0  0  0  0  0  0
   -6.8681   -2.7032    0.0331 H   0  0  0  0  0  0  0  0  0  0  0  0
   -7.7049   -1.8356    1.3561 H   0  0  0  0  0  0  0  0  0  0  0  0
   -7.9470   -3.5705    1.1194 H   0  0  0  0  0  0  0  0  0  0  0  0
   -7.0313   -4.7285    2.9087 H   0  0  0  0  0  0  0  0  0  0  0  0
   -6.2152   -5.7722    4.9945 H   0  0  0  0  0  0  0  0  0  0  0  0
   -4.7999   -6.4913    4.1869 H   0  0  0  0  0  0  0  0  0  0  0  0
   -4.5961   -5.4280    5.6010 H   0  0  0  0  0  0  0  0  0  0  0  0
   -3.0937   -3.8783    4.3901 H   0  0  0  0  0  0  0  0  0  0  0  0
   -1.9212   -1.9930    2.0170 H   0  0  0  0  0  0  0  0  0  0  0  0
   -2.7413   -0.6634    2.8905 H   0  0  0  0  0  0  0  0  0  0  0  0
   -1.9504   -1.9499    3.7863 H   0  0  0  0  0  0  0  0  0  0  0  0
   -5.9990    0.2304    2.1833 H   0  0  0  0  0  0  0  0  0  0  0  0
   -3.4446    4.1442    2.5811 H   0  0  0  0  0  0  0  0  0  0  0  0
   -3.0899    3.1801    1.1463 H   0  0  0  0  0  0  0  0  0  0  0  0
   -3.7388    2.4076    2.6251 H   0  0  0  0  0  0  0  0  0  0  0  0
   -5.3121    5.4873    2.3261 H   0  0  0  0  0  0  0  0  0  0  0  0
   -7.0882    7.0871    1.7093 H   0  0  0  0  0  0  0  0  0  0  0  0
   -8.5265    6.5480    0.8445 H   0  0  0  0  0  0  0  0  0  0  0  0
   -8.3482    6.1753    2.5770 H   0  0  0  0  0  0  0  0  0  0  0  0
   -8.8169    4.1711    0.2351 H   0  0  0  0  0  0  0  0  0  0  0  0
   -8.1424    0.8429    0.1072 H   0  0  0  0  0  0  0  0  0  0  0  0
   -7.4108    1.4450   -1.4114 H   0  0  0  0  0  0  0  0  0  0  0  0
   -8.9296    2.1184   -0.8258 H   0  0  0  0  0  0  0  0  0  0  0  0
   -4.2068    1.9410   -1.3260 H   0  0  0  0  0  0  0  0  0  0  0  0
   -4.2445    0.3936   -3.5618 H   0  0  0  0  0  0  0  0  0  0  0  0
    0.2002   -1.1607   -5.8971 H   0  0  0  0  0  0  0  0  0  0  0  0
    0.9572    0.1999   -5.0578 H   0  0  0  0  0  0  0  0  0  0  0  0
   -0.4664    1.7900   -6.1859 H   0  0  0  0  0  0  0  0  0  0  0  0
    0.2150    0.6996   -7.3946 H   0  0  0  0  0  0  0  0  0  0  0  0
   -1.8808   -0.6888   -7.3032 H   0  0  0  0  0  0  0  0  0  0  0  0
   -2.1953    0.9635   -7.8315 H   0  0  0  0  0  0  0  0  0  0  0  0
   -3.7896    0.0430   -6.0607 H   0  0  0  0  0  0  0  0  0  0  0  0
   -3.0641    1.6192   -5.7124 H   0  0  0  0  0  0  0  0  0  0  0  0
    3.4627    1.5647   -1.3813 H   0  0  0  0  0  0  0  0  0  0  0  0
    5.9175    2.6638   -2.2242 H   0  0  0  0  0  0  0  0  0  0  0  0
    7.2057    3.8236   -1.8726 H   0  0  0  0  0  0  0  0  0  0  0  0
    7.0853    2.3622   -0.9019 H   0  0  0  0  0  0  0  0  0  0  0  0
    6.2129    5.7822   -1.1213 H   0  0  0  0  0  0  0  0  0  0  0  0
    3.7917    7.8560    0.7452 H   0  0  0  0  0  0  0  0  0  0  0  0
    5.0007    7.8514   -0.5377 H   0  0  0  0  0  0  0  0  0  0  0  0
    5.5215    7.7910    1.1644 H   0  0  0  0  0  0  0  0  0  0  0  0
    3.2813    5.7937    2.0045 H   0  0  0  0  0  0  0  0  0  0  0  0
    3.5350    2.6408    3.0539 H   0  0  0  0  0  0  0  0  0  0  0  0
    2.2734    3.8416    2.7515 H   0  0  0  0  0  0  0  0  0  0  0  0
    2.3351    2.3998    1.7472 H   0  0  0  0  0  0  0  0  0  0  0  0
    5.8786    1.3910    2.1634 H   0  0  0  0  0  0  0  0  0  0  0  0
    9.0615   -1.7262    1.2833 H   0  0  0  0  0  0  0  0  0  0  0  0
    8.1837   -0.1980    1.1716 H   0  0  0  0  0  0  0  0  0  0  0  0
    7.6141   -1.6436    0.2828 H   0  0  0  0  0  0  0  0  0  0  0  0
    8.8371   -2.7010    3.3704 H   0  0  0  0  0  0  0  0  0  0  0  0
    7.5607   -4.6820    5.4146 H   0  0  0  0  0  0  0  0  0  0  0  0
    8.7412   -3.3889    5.7408 H   0  0  0  0  0  0  0  0  0  0  0  0
    7.2084   -3.4109    6.6113 H   0  0  0  0  0  0  0  0  0  0  0  0
    5.1084   -2.7520    5.4885 H   0  0  0  0  0  0  0  0  0  0  0  0
    3.2380   -1.6175    4.7276 H   0  0  0  0  0  0  0  0  0  0  0  0
    3.0378   -1.8743    2.9909 H   0  0  0  0  0  0  0  0  0  0  0  0
    3.4738   -0.2607    3.6322 H   0  0  0  0  0  0  0  0  0  0  0  0
    4.3563   -2.2327    0.4378 H   0  0  0  0  0  0  0  0  0  0  0  0
    4.4704   -2.5366   -2.1714 H   0  0  0  0  0  0  0  0  0  0  0  0
   -0.6383   -3.4919   -3.6914 H   0  0  0  0  0  0  0  0  0  0  0  0
    0.1922   -3.0343   -5.1846 H   0  0  0  0  0  0  0  0  0  0  0  0
    0.2156   -5.4183   -5.0423 H   0  0  0  0  0  0  0  0  0  0  0  0
    0.8073   -5.4006   -3.3798 H   0  0  0  0  0  0  0  0  0  0  0  0
    2.6393   -5.8613   -5.0565 H   0  0  0  0  0  0  0  0  0  0  0  0
    2.3344   -4.2891   -5.7935 H   0  0  0  0  0  0  0  0  0  0  0  0
    3.3792   -4.9059   -3.0031 H   0  0  0  0  0  0  0  0  0  0  0  0
    4.1583   -3.9603   -4.2803 H   0  0  0  0  0  0  0  0  0  0  0  0
  2  3  1  0  0  0  0
  2  1  2  0  0  0  0
  3 74  1  0  0  0  0
  4  2  1  0  0  0  0
  5  4  1  0  0  0  0
  6  5  1  0  0  0  0
  6  7  1  0  0  0  0
  7 30  2  0  0  0  0
  7  8  1  0  0  0  0
  8  9  2  0  0  0  0
  9 19  1  0  0  0  0
  9 10  1  0  0  0  0
 10 11  2  0  0  0  0
 10 17  1  0  0  0  0
 11 13  1  0  0  0  0
 12 78  1  0  0  0  0
 12 77  1  0  0  0  0
 12 11  1  0  0  0  0
 13 79  1  0  0  0  0
 13 14  2  0  0  0  0
 14 15  1  0  0  0  0
 15 80  1  0  0  0  0
 15 82  1  0  0  0  0
 16 14  1  0  0  0  0
 16 83  1  0  0  0  0
 17 18  1  0  0  0  0
 17 16  2  0  0  0  0
 18 85  1  0  0  0  0
 18 86  1  0  0  0  0
 19 87  1  0  0  0  0
 20 21  1  0  0  0  0
 20 19  2  0  0  0  0
 21 22  2  0  0  0  0
 22 24  1  0  0  0  0
 22 23  1  0  0  0  0
 23 88  1  0  0  0  0
 23 90  1  0  0  0  0
 24 91  1  0  0  0  0
 25 26  1  0  0  0  0
 25 24  2  0  0  0  0
 26 92  1  0  0  0  0
 26 94  1  0  0  0  0
 27 25  1  0  0  0  0
 28 27  2  0  0  0  0
 28 21  1  0  0  0  0
 29 96  1  0  0  0  0
 29 28  1  0  0  0  0
 30 20  1  0  0  0  0
 31  6  2  0  0  0  0
 32 33  2  0  0  0  0
 32 31  1  0  0  0  0
 33 38  1  0  0  0  0
 34102  1  0  0  0  0
 34 33  1  0  0  0  0
 35103  1  0  0  0  0
 35 34  1  0  0  0  0
 36 35  1  0  0  0  0
 36 37  1  0  0  0  0
 37108  1  0  0  0  0
 37 32  1  0  0  0  0
 38 39  1  0  0  0  0
 38  5  2  0  0  0  0
 39 40  2  0  0  0  0
 40 42  1  0  0  0  0
 40 41  1  0  0  0  0
 41  2  1  0  0  0  0
 42 43  1  0  0  0  0
 43 44  2  0  0  0  0
 43 66  1  0  0  0  0
 44 45  1  0  0  0  0
 45 46  1  0  0  0  0
 45 55  2  0  0  0  0
 46 53  2  0  0  0  0
 47 49  2  0  0  0  0
 47 46  1  0  0  0  0
 48112  1  0  0  0  0
 48 47  1  0  0  0  0
 49 50  1  0  0  0  0
 50 51  1  0  0  0  0
 50 52  2  0  0  0  0
 51114  1  0  0  0  0
 51116  1  0  0  0  0
 52117  1  0  0  0  0
 53 52  1  0  0  0  0
 53 54  1  0  0  0  0
 54119  1  0  0  0  0
 54118  1  0  0  0  0
 55 56  1  0  0  0  0
 55121  1  0  0  0  0
 56 57  1  0  0  0  0
 57 64  1  0  0  0  0
 58 57  2  0  0  0  0
 58 60  1  0  0  0  0
 59122  1  0  0  0  0
 59 58  1  0  0  0  0
 60 61  2  0  0  0  0
 61 63  1  0  0  0  0
 61 62  1  0  0  0  0
 62127  1  0  0  0  0
 62128  1  0  0  0  0
 63129  1  0  0  0  0
 64 65  1  0  0  0  0
 64 63  2  0  0  0  0
 65130  1  0  0  0  0
 66133  1  0  0  0  0
 66 56  2  0  0  0  0
 67134  1  0  0  0  0
 67 42  2  0  0  0  0
 68 67  1  0  0  0  0
 69 68  2  0  0  0  0
 69 39  1  0  0  0  0
 70135  1  0  0  0  0
 70 69  1  0  0  0  0
 71 70  1  0  0  0  0
 71138  1  0  0  0  0
 72 71  1  0  0  0  0
 72 73  1  0  0  0  0
 73 68  1  0  0  0  0
 73141  1  0  0  0  0
 75  8  1  0  0  0  0
 76 12  1  0  0  0  0
 81 15  1  0  0  0  0
 84 18  1  0  0  0  0
 89 23  1  0  0  0  0
 93 26  1  0  0  0  0
 95 27  1  0  0  0  0
 97 29  1  0  0  0  0
 98 29  1  0  0  0  0
 99 30  1  0  0  0  0
100 31  1  0  0  0  0
101 34  1  0  0  0  0
104 35  1  0  0  0  0
105 36  1  0  0  0  0
106 36  1  0  0  0  0
107 37  1  0  0  0  0
109 44  1  0  0  0  0
110 48  1  0  0  0  0
111 48  1  0  0  0  0
113 49  1  0  0  0  0
115 51  1  0  0  0  0
120 54  1  0  0  0  0
123 59  1  0  0  0  0
124 59  1  0  0  0  0
125 60  1  0  0  0  0
126 62  1  0  0  0  0
131 65  1  0  0  0  0
132 65  1  0  0  0  0
136 70  1  0  0  0  0
137 71  1  0  0  0  0
139 72  1  0  0  0  0
140 72  1  0  0  0  0
142 73  1  0  0  0  0
M  END
$$$$
