O=P1(O)OC2=C(C3=CC=C(S(F)(F)(F)(F)F)C=C3)C=C4C(C=CC=C4)=C2C5=C(O1)C(C6=CC=C(S(F)(F)(F)(F)F)C=C6)=CC7=C5C=CC=C7
 OpenBabel09032010373D

 68 66  0  0  0  0  0  0  0  0999 V2000
    0.0947   -1.8502   -2.4893 O   0  0  0  0  0  0  0  0  0  0  0  0
   -0.2530   -1.6506   -1.0590 P   0  0  0  0  0  0  0  0  0  0  0  0
   -0.7774   -3.1203   -0.4402 O   0  0  0  0  0  0  0  0  0  0  0  0
   -1.4988   -0.4117   -0.9280 O   0  0  0  0  0  0  0  0  0  0  0  0
   -1.6564    0.3295    0.2401 C   0  0  0  0  0  0  0  0  0  0  0  0
   -2.8815    0.4751    0.8057 C   0  0  0  0  0  0  0  0  0  0  0  0
   -4.0408   -0.1394    0.1176 C   0  0  0  0  0  0  0  0  0  0  0  0
   -4.9639   -0.8741    0.8172 C   0  0  0  0  0  0  0  0  0  0  0  0
   -6.0283   -1.4135    0.0903 C   0  0  0  0  0  0  0  0  0  0  0  0
   -6.2219   -1.2643   -1.2651 C   0  0  0  0  0  0  0  0  0  0  0  0
   -7.8701   -1.9528   -2.1872 S   0  0  0  0  0  0  0  0  0  0  0  0
   -6.8482   -4.1705   -2.3560 F   0  0  0  0  0  0  0  0  0  0  0  0
   -8.4654   -1.2106   -4.1086 F   0  0  0  0  0  0  0  0  0  0  0  0
   -9.0520   -3.6686   -1.5228 F   0  0  0  0  0  0  0  0  0  0  0  0
   -6.9941   -2.9790   -4.4103 F   0  0  0  0  0  0  0  0  0  0  0  0
   -9.2766   -1.2996   -1.8775 F   0  0  0  0  0  0  0  0  0  0  0  0
   -5.2975   -0.5435   -1.9023 C   0  0  0  0  0  0  0  0  0  0  0  0
   -4.2009    0.0281   -1.2338 C   0  0  0  0  0  0  0  0  0  0  0  0
   -3.0639    1.1762    1.9883 C   0  0  0  0  0  0  0  0  0  0  0  0
   -1.9755    1.7462    2.6339 C   0  0  0  0  0  0  0  0  0  0  0  0
   -0.6621    1.6366    2.0997 C   0  0  0  0  0  0  0  0  0  0  0  0
    0.4508    2.0131    2.8142 C   0  0  0  0  0  0  0  0  0  0  0  0
    0.2931    2.5442    4.0826 C   0  0  0  0  0  0  0  0  0  0  0  0
   -0.9841    2.6811    4.6116 C   0  0  0  0  0  0  0  0  0  0  0  0
   -2.0903    2.2861    3.8966 C   0  0  0  0  0  0  0  0  0  0  0  0
   -0.5937    0.9523    0.9378 C   0  0  0  0  0  0  0  0  0  0  0  0
    0.7502    1.1784    0.3297 C   0  0  0  0  0  0  0  0  0  0  0  0
    1.6170    0.1256   -0.0466 C   0  0  0  0  0  0  0  0  0  0  0  0
    1.1963   -1.1952   -0.1911 O   0  0  0  0  0  0  0  0  0  0  0  0
    2.9000    0.4744   -0.2934 C   0  0  0  0  0  0  0  0  0  0  0  0
    3.8342   -0.5917   -0.6742 C   0  0  0  0  0  0  0  0  0  0  0  0
    4.6877   -0.3970   -1.7290 C   0  0  0  0  0  0  0  0  0  0  0  0
    5.5965   -1.4040   -2.1176 C   0  0  0  0  0  0  0  0  0  0  0  0
    5.6669   -2.5770   -1.4873 C   0  0  0  0  0  0  0  0  0  0  0  0
    6.8231   -4.0597   -2.1695 S   0  0  0  0  0  0  0  0  0  0  0  0
    6.3109   -5.3407   -2.7583 F   0  0  0  0  0  0  0  0  0  0  0  0
    7.8106   -4.0092   -4.0264 F   0  0  0  0  0  0  0  0  0  0  0  0
    8.5031   -3.4178   -0.3343 F   0  0  0  0  0  0  0  0  0  0  0  0
    9.1699   -2.8457   -2.5470 F   0  0  0  0  0  0  0  0  0  0  0  0
    7.6817   -5.6330   -0.7985 F   0  0  0  0  0  0  0  0  0  0  0  0
    4.8008   -2.7433   -0.4316 C   0  0  0  0  0  0  0  0  0  0  0  0
    3.8719   -1.7851    0.0081 C   0  0  0  0  0  0  0  0  0  0  0  0
    3.3241    1.7997   -0.1901 C   0  0  0  0  0  0  0  0  0  0  0  0
    2.4218    2.7901    0.1630 C   0  0  0  0  0  0  0  0  0  0  0  0
    1.0592    2.4877    0.4372 C   0  0  0  0  0  0  0  0  0  0  0  0
    0.1101    3.4673    0.5921 C   0  0  0  0  0  0  0  0  0  0  0  0
    0.4881    4.7985    0.5100 C   0  0  0  0  0  0  0  0  0  0  0  0
    1.8237    5.1096    0.2655 C   0  0  0  0  0  0  0  0  0  0  0  0
    2.7625    4.1246    0.0950 C   0  0  0  0  0  0  0  0  0  0  0  0
   -0.3587   -3.2961    0.4300 H   0  0  0  0  0  0  0  0  0  0  0  0
   -4.9312   -1.0595    1.8514 H   0  0  0  0  0  0  0  0  0  0  0  0
   -6.8211   -2.0246    0.5532 H   0  0  0  0  0  0  0  0  0  0  0  0
   -5.3910   -0.3924   -2.9575 H   0  0  0  0  0  0  0  0  0  0  0  0
   -3.5346    0.5827   -1.8578 H   0  0  0  0  0  0  0  0  0  0  0  0
   -4.0598    1.2696    2.3941 H   0  0  0  0  0  0  0  0  0  0  0  0
    1.4855    1.8467    2.5942 H   0  0  0  0  0  0  0  0  0  0  0  0
    1.1267    2.8525    4.6588 H   0  0  0  0  0  0  0  0  0  0  0  0
   -1.0975    3.1124    5.5937 H   0  0  0  0  0  0  0  0  0  0  0  0
   -3.1011    2.3914    4.3165 H   0  0  0  0  0  0  0  0  0  0  0  0
    4.7278    0.4986   -2.3123 H   0  0  0  0  0  0  0  0  0  0  0  0
    6.2437   -1.2124   -2.9440 H   0  0  0  0  0  0  0  0  0  0  0  0
    4.9163   -3.7234    0.0481 H   0  0  0  0  0  0  0  0  0  0  0  0
    3.2674   -2.0425    0.8285 H   0  0  0  0  0  0  0  0  0  0  0  0
    4.3604    2.0275   -0.3905 H   0  0  0  0  0  0  0  0  0  0  0  0
   -0.9547    3.3856    0.6512 H   0  0  0  0  0  0  0  0  0  0  0  0
   -0.1915    5.6131    0.6291 H   0  0  0  0  0  0  0  0  0  0  0  0
    2.1500    6.1321    0.2138 H   0  0  0  0  0  0  0  0  0  0  0  0
    3.8111    4.3624   -0.1002 H   0  0  0  0  0  0  0  0  0  0  0  0
  1  2  2  0  0  0  0
  2  4  1  0  0  0  0
  2  3  1  0  0  0  0
  2 29  1  0  0  0  0
  3 50  1  0  0  0  0
  4  5  1  0  0  0  0
  5  6  2  0  0  0  0
  5 26  1  0  0  0  0
  6 19  1  0  0  0  0
  7  6  1  0  0  0  0
  7  8  1  0  0  0  0
  8 51  1  0  0  0  0
  9 52  1  0  0  0  0
  9  8  2  0  0  0  0
 10  9  1  0  0  0  0
 11 16  1  0  0  0  0
 11 10  1  0  0  0  0
 17 10  2  0  0  0  0
 17 18  1  0  0  0  0
 18  7  2  0  0  0  0
 19 55  1  0  0  0  0
 19 20  2  0  0  0  0
 20 25  1  0  0  0  0
 21 20  1  0  0  0  0
 21 22  1  0  0  0  0
 22 23  2  0  0  0  0
 23 24  1  0  0  0  0
 23 57  1  0  0  0  0
 24 58  1  0  0  0  0
 25 59  1  0  0  0  0
 25 24  2  0  0  0  0
 26 21  2  0  0  0  0
 27 45  1  0  0  0  0
 27 26  1  0  0  0  0
 28 27  2  0  0  0  0
 29 28  1  0  0  0  0
 30 43  2  0  0  0  0
 30 28  1  0  0  0  0
 31 30  1  0  0  0  0
 31 42  2  0  0  0  0
 32 31  1  0  0  0  0
 33 32  2  0  0  0  0
 33 34  1  0  0  0  0
 34 41  2  0  0  0  0
 35 34  1  0  0  0  0
 36 35  1  0  0  0  0
 41 42  1  0  0  0  0
 41 62  1  0  0  0  0
 42 63  1  0  0  0  0
 43 44  1  0  0  0  0
 44 45  1  0  0  0  0
 45 46  2  0  0  0  0
 46 65  1  0  0  0  0
 47 46  1  0  0  0  0
 47 66  1  0  0  0  0
 48 47  2  0  0  0  0
 49 44  2  0  0  0  0
 49 48  1  0  0  0  0
 53 17  1  0  0  0  0
 54 18  1  0  0  0  0
 56 22  1  0  0  0  0
 60 32  1  0  0  0  0
 61 33  1  0  0  0  0
 64 43  1  0  0  0  0
 67 48  1  0  0  0  0
 68 49  1  0  0  0  0
M  RAD  8  12   2  13   2  14   2  15   2  37   2  38   2  39   2  40   2
M  END
$$$$
