O=P1(O)OC2=C([Si](C3=CC=CC=C3)(C4=CC=CC=C4)C5=CC=CC=C5)C=C6C(C=CC=C6)=C2C7=C(O1)C([Si](C8=CC=CC=C8)(C9=CC=CC=C9)C%10=CC=CC=C%10)=CC%11=C7C=CC=C%11
 OpenBabel09032010383D

104114  0  0  0  0  0  0  0  0999 V2000
    0.9691    1.4257    1.9359 O   0  0  0  0  0  0  0  0  0  0  0  0
    0.1194    1.0754    0.7526 P   0  0  0  0  0  0  0  0  0  0  0  0
   -0.7355    2.3280    0.2356 O   0  0  0  0  0  0  0  0  0  0  0  0
    0.9173    0.6425   -0.5787 O   0  0  0  0  0  0  0  0  0  0  0  0
    1.6149   -0.5308   -0.5054 C   0  0  0  0  0  0  0  0  0  0  0  0
    3.0206   -0.4702   -0.4755 C   0  0  0  0  0  0  0  0  0  0  0  0
    4.0464    1.0920   -0.6371 Si  0  0  0  0  0  0  0  0  0  0  0  0
    4.9400    1.1051   -2.2904 C   0  0  0  0  0  0  0  0  0  0  0  0
    4.9400    0.0003   -3.1617 C   0  0  0  0  0  0  0  0  0  0  0  0
    5.6093    0.0469   -4.3891 C   0  0  0  0  0  0  0  0  0  0  0  0
    6.2883    1.1981   -4.7763 C   0  0  0  0  0  0  0  0  0  0  0  0
    6.2962    2.3084   -3.9397 C   0  0  0  0  0  0  0  0  0  0  0  0
    5.6274    2.2641   -2.7134 C   0  0  0  0  0  0  0  0  0  0  0  0
    5.2993    1.0477    0.7568 C   0  0  0  0  0  0  0  0  0  0  0  0
    4.8761    0.8039    2.0818 C   0  0  0  0  0  0  0  0  0  0  0  0
    5.7904    0.7472    3.1376 C   0  0  0  0  0  0  0  0  0  0  0  0
    7.1476    0.9284    2.8956 C   0  0  0  0  0  0  0  0  0  0  0  0
    7.5913    1.1662    1.5989 C   0  0  0  0  0  0  0  0  0  0  0  0
    6.6793    1.2228    0.5402 C   0  0  0  0  0  0  0  0  0  0  0  0
    3.0532    2.6762   -0.5779 C   0  0  0  0  0  0  0  0  0  0  0  0
    3.0288    3.5101    0.5555 C   0  0  0  0  0  0  0  0  0  0  0  0
    2.2994    4.7047    0.5662 C   0  0  0  0  0  0  0  0  0  0  0  0
    1.5801    5.0982   -0.5574 C   0  0  0  0  0  0  0  0  0  0  0  0
    1.5844    4.2941   -1.6918 C   0  0  0  0  0  0  0  0  0  0  0  0
    2.3124    3.1002   -1.7029 C   0  0  0  0  0  0  0  0  0  0  0  0
    3.6885   -1.6959   -0.3055 C   0  0  0  0  0  0  0  0  0  0  0  0
    3.0041   -2.9097   -0.1709 C   0  0  0  0  0  0  0  0  0  0  0  0
    1.5888   -2.9401   -0.2461 C   0  0  0  0  0  0  0  0  0  0  0  0
    0.9735   -4.1995   -0.0278 C   0  0  0  0  0  0  0  0  0  0  0  0
    1.7090   -5.3667    0.1945 C   0  0  0  0  0  0  0  0  0  0  0  0
    3.0931   -5.3130    0.2225 C   0  0  0  0  0  0  0  0  0  0  0  0
    3.7351   -4.0906    0.0465 C   0  0  0  0  0  0  0  0  0  0  0  0
    0.8529   -1.7266   -0.4853 C   0  0  0  0  0  0  0  0  0  0  0  0
   -0.5780   -1.6862   -0.7442 C   0  0  0  0  0  0  0  0  0  0  0  0
   -1.4737   -0.8865    0.0364 C   0  0  0  0  0  0  0  0  0  0  0  0
   -0.9728   -0.0735    1.0285 O   0  0  0  0  0  0  0  0  0  0  0  0
   -2.8847   -0.9773   -0.0505 C   0  0  0  0  0  0  0  0  0  0  0  0
   -4.0768   -0.0476    1.0662 Si  0  0  0  0  0  0  0  0  0  0  0  0
   -5.8380   -0.6648    0.7395 C   0  0  0  0  0  0  0  0  0  0  0  0
   -6.2068   -1.9725    1.1236 C   0  0  0  0  0  0  0  0  0  0  0  0
   -7.4960   -2.4597    0.8925 C   0  0  0  0  0  0  0  0  0  0  0  0
   -8.4475   -1.6522    0.2784 C   0  0  0  0  0  0  0  0  0  0  0  0
   -8.1120   -0.3555   -0.1000 C   0  0  0  0  0  0  0  0  0  0  0  0
   -6.8223    0.1358    0.1301 C   0  0  0  0  0  0  0  0  0  0  0  0
   -3.9821    1.7649    0.6470 C   0  0  0  0  0  0  0  0  0  0  0  0
   -4.0279    2.1892   -0.6991 C   0  0  0  0  0  0  0  0  0  0  0  0
   -3.9936    3.5457   -1.0385 C   0  0  0  0  0  0  0  0  0  0  0  0
   -3.9040    4.5123   -0.0428 C   0  0  0  0  0  0  0  0  0  0  0  0
   -3.8351    4.1218    1.2904 C   0  0  0  0  0  0  0  0  0  0  0  0
   -3.8694    2.7650    1.6314 C   0  0  0  0  0  0  0  0  0  0  0  0
   -3.8232   -0.3869    2.8866 C   0  0  0  0  0  0  0  0  0  0  0  0
   -2.7945   -1.2117    3.3767 C   0  0  0  0  0  0  0  0  0  0  0  0
   -2.6455   -1.4538    4.7471 C   0  0  0  0  0  0  0  0  0  0  0  0
   -3.5303   -0.8904    5.6602 C   0  0  0  0  0  0  0  0  0  0  0  0
   -4.5715   -0.0905    5.2048 C   0  0  0  0  0  0  0  0  0  0  0  0
   -4.7194    0.1528    3.8362 C   0  0  0  0  0  0  0  0  0  0  0  0
   -3.4017   -1.8117   -1.0557 C   0  0  0  0  0  0  0  0  0  0  0  0
   -2.5824   -2.5318   -1.9286 C   0  0  0  0  0  0  0  0  0  0  0  0
   -1.1744   -2.4677   -1.7974 C   0  0  0  0  0  0  0  0  0  0  0  0
   -0.4286   -3.1693   -2.7827 C   0  0  0  0  0  0  0  0  0  0  0  0
   -1.0294   -3.9327   -3.7884 C   0  0  0  0  0  0  0  0  0  0  0  0
   -2.4093   -4.0115   -3.8595 C   0  0  0  0  0  0  0  0  0  0  0  0
   -3.1794   -3.3088   -2.9382 C   0  0  0  0  0  0  0  0  0  0  0  0
   -0.1910    3.1361    0.2734 H   0  0  0  0  0  0  0  0  0  0  0  0
    4.4130   -0.9186   -2.9130 H   0  0  0  0  0  0  0  0  0  0  0  0
    5.5943   -0.8198   -5.0454 H   0  0  0  0  0  0  0  0  0  0  0  0
    6.8058    1.2307   -5.7311 H   0  0  0  0  0  0  0  0  0  0  0  0
    6.8189    3.2131   -4.2398 H   0  0  0  0  0  0  0  0  0  0  0  0
    5.6483    3.1571   -2.0875 H   0  0  0  0  0  0  0  0  0  0  0  0
    3.8198    0.6542    2.3140 H   0  0  0  0  0  0  0  0  0  0  0  0
    5.4399    0.5594    4.1495 H   0  0  0  0  0  0  0  0  0  0  0  0
    7.8582    0.8825    3.7158 H   0  0  0  0  0  0  0  0  0  0  0  0
    8.6515    1.3058    1.4053 H   0  0  0  0  0  0  0  0  0  0  0  0
    7.0805    1.3991   -0.4563 H   0  0  0  0  0  0  0  0  0  0  0  0
    3.5793    3.2500    1.4589 H   0  0  0  0  0  0  0  0  0  0  0  0
    2.3081    5.3308    1.4558 H   0  0  0  0  0  0  0  0  0  0  0  0
    1.0289    6.0350   -0.5527 H   0  0  0  0  0  0  0  0  0  0  0  0
    1.0321    4.5972   -2.5782 H   0  0  0  0  0  0  0  0  0  0  0  0
    2.2974    2.5025   -2.6158 H   0  0  0  0  0  0  0  0  0  0  0  0
    4.7798   -1.7109   -0.2515 H   0  0  0  0  0  0  0  0  0  0  0  0
   -0.1115   -4.2870   -0.0152 H   0  0  0  0  0  0  0  0  0  0  0  0
    1.1937   -6.3103    0.3518 H   0  0  0  0  0  0  0  0  0  0  0  0
    3.6741   -6.2141    0.3967 H   0  0  0  0  0  0  0  0  0  0  0  0
    4.8225   -4.0646    0.0949 H   0  0  0  0  0  0  0  0  0  0  0  0
   -5.4907   -2.6326    1.6140 H   0  0  0  0  0  0  0  0  0  0  0  0
   -7.7548   -3.4701    1.1983 H   0  0  0  0  0  0  0  0  0  0  0  0
   -9.4513   -2.0298    0.1010 H   0  0  0  0  0  0  0  0  0  0  0  0
   -8.8577    0.2800   -0.5720 H   0  0  0  0  0  0  0  0  0  0  0  0
   -6.6116    1.1599   -0.1725 H   0  0  0  0  0  0  0  0  0  0  0  0
   -4.0917    1.4635   -1.5102 H   0  0  0  0  0  0  0  0  0  0  0  0
   -4.0345    3.8432   -2.0830 H   0  0  0  0  0  0  0  0  0  0  0  0
   -3.8806    5.5663   -0.3051 H   0  0  0  0  0  0  0  0  0  0  0  0
   -3.7505    4.8716    2.0728 H   0  0  0  0  0  0  0  0  0  0  0  0
   -3.7988    2.5129    2.6878 H   0  0  0  0  0  0  0  0  0  0  0  0
   -2.0856   -1.6924    2.7062 H   0  0  0  0  0  0  0  0  0  0  0  0
   -1.8354   -2.0881    5.0982 H   0  0  0  0  0  0  0  0  0  0  0  0
   -3.4124   -1.0807    6.7232 H   0  0  0  0  0  0  0  0  0  0  0  0
   -5.2744    0.3432    5.9111 H   0  0  0  0  0  0  0  0  0  0  0  0
   -5.5584    0.7732    3.5188 H   0  0  0  0  0  0  0  0  0  0  0  0
   -4.4804   -1.8965   -1.1942 H   0  0  0  0  0  0  0  0  0  0  0  0
    0.6585   -3.1170   -2.7906 H   0  0  0  0  0  0  0  0  0  0  0  0
   -0.4118   -4.4554   -4.5135 H   0  0  0  0  0  0  0  0  0  0  0  0
   -2.8881   -4.6021   -4.6357 H   0  0  0  0  0  0  0  0  0  0  0  0
   -4.2640   -3.3651   -3.0212 H   0  0  0  0  0  0  0  0  0  0  0  0
  2 36  1  0  0  0  0
  2  1  2  0  0  0  0
  3 64  1  0  0  0  0
  3  2  1  0  0  0  0
  4  5  1  0  0  0  0
  4  2  1  0  0  0  0
  5 33  2  0  0  0  0
  5  6  1  0  0  0  0
  6 26  2  0  0  0  0
  7 20  1  0  0  0  0
  7  6  1  0  0  0  0
  7 14  1  0  0  0  0
  8  7  1  0  0  0  0
  9 65  1  0  0  0  0
  9  8  2  0  0  0  0
 10  9  1  0  0  0  0
 11 10  2  0  0  0  0
 11 12  1  0  0  0  0
 12 13  2  0  0  0  0
 13  8  1  0  0  0  0
 13 69  1  0  0  0  0
 14 15  1  0  0  0  0
 15 70  1  0  0  0  0
 15 16  2  0  0  0  0
 16 71  1  0  0  0  0
 17 16  1  0  0  0  0
 17 72  1  0  0  0  0
 18 17  2  0  0  0  0
 19 14  2  0  0  0  0
 19 18  1  0  0  0  0
 20 21  2  0  0  0  0
 21 22  1  0  0  0  0
 21 75  1  0  0  0  0
 22 76  1  0  0  0  0
 23 77  1  0  0  0  0
 23 22  2  0  0  0  0
 24 23  1  0  0  0  0
 25 24  2  0  0  0  0
 25 20  1  0  0  0  0
 26 80  1  0  0  0  0
 26 27  1  0  0  0  0
 27 32  1  0  0  0  0
 28 27  2  0  0  0  0
 28 29  1  0  0  0  0
 29 81  1  0  0  0  0
 29 30  2  0  0  0  0
 30 31  1  0  0  0  0
 30 82  1  0  0  0  0
 31 83  1  0  0  0  0
 32 84  1  0  0  0  0
 32 31  2  0  0  0  0
 33 28  1  0  0  0  0
 34 33  1  0  0  0  0
 34 35  2  0  0  0  0
 35 36  1  0  0  0  0
 37 35  1  0  0  0  0
 37 38  1  0  0  0  0
 38 51  1  0  0  0  0
 39 38  1  0  0  0  0
 39 40  2  0  0  0  0
 40 85  1  0  0  0  0
 41 40  1  0  0  0  0
 41 86  1  0  0  0  0
 42 41  2  0  0  0  0
 43 44  2  0  0  0  0
 43 42  1  0  0  0  0
 44 39  1  0  0  0  0
 45 38  1  0  0  0  0
 45 50  2  0  0  0  0
 46 45  1  0  0  0  0
 47 46  2  0  0  0  0
 47 48  1  0  0  0  0
 48 49  2  0  0  0  0
 49 50  1  0  0  0  0
 49 93  1  0  0  0  0
 50 94  1  0  0  0  0
 51 52  2  0  0  0  0
 51 56  1  0  0  0  0
 52 53  1  0  0  0  0
 53 96  1  0  0  0  0
 53 54  2  0  0  0  0
 54 97  1  0  0  0  0
 55 54  1  0  0  0  0
 55 98  1  0  0  0  0
 56 55  2  0  0  0  0
 57 37  2  0  0  0  0
 58 59  1  0  0  0  0
 58 57  1  0  0  0  0
 59 34  1  0  0  0  0
 60 59  2  0  0  0  0
 61 60  1  0  0  0  0
 62 61  2  0  0  0  0
 62 63  1  0  0  0  0
 63 58  2  0  0  0  0
 66 10  1  0  0  0  0
 67 11  1  0  0  0  0
 68 12  1  0  0  0  0
 73 18  1  0  0  0  0
 74 19  1  0  0  0  0
 78 24  1  0  0  0  0
 79 25  1  0  0  0  0
 87 42  1  0  0  0  0
 88 43  1  0  0  0  0
 89 44  1  0  0  0  0
 90 46  1  0  0  0  0
 91 47  1  0  0  0  0
 92 48  1  0  0  0  0
 95 52  1  0  0  0  0
 99 56  1  0  0  0  0
100 57  1  0  0  0  0
101 60  1  0  0  0  0
102 61  1  0  0  0  0
103 62  1  0  0  0  0
104 63  1  0  0  0  0
M  END
$$$$
