O=P1(O)OC2=C(CC)C=C3C(CCCC3)=C2C4=C(O1)C(CC)=CC5=C4CCCC5
 OpenBabel09032010373D

 58 62  0  0  0  0  0  0  0  0999 V2000
    1.5531    4.1434    0.8061 O   0  0  0  0  0  0  0  0  0  0  0  0
    0.6985    3.2576   -0.0483 P   0  0  0  0  0  0  0  0  0  0  0  0
    0.0377    4.1267   -1.2322 O   0  0  0  0  0  0  0  0  0  0  0  0
    1.4876    2.0983   -0.8449 O   0  0  0  0  0  0  0  0  0  0  0  0
    1.7797    0.9566   -0.1389 C   0  0  0  0  0  0  0  0  0  0  0  0
    3.1270    0.6948    0.1438 C   0  0  0  0  0  0  0  0  0  0  0  0
    4.2362    1.5895   -0.3520 C   0  0  0  0  0  0  0  0  0  0  0  0
    4.6254    1.2680   -1.7871 C   0  0  0  0  0  0  0  0  0  0  0  0
    3.4347   -0.4383    0.8965 C   0  0  0  0  0  0  0  0  0  0  0  0
    2.4235   -1.2627    1.4090 C   0  0  0  0  0  0  0  0  0  0  0  0
    1.0678   -0.9753    1.1216 C   0  0  0  0  0  0  0  0  0  0  0  0
   -0.0253   -1.7639    1.8313 C   0  0  0  0  0  0  0  0  0  0  0  0
    0.4618   -2.5232    3.0647 C   0  0  0  0  0  0  0  0  0  0  0  0
    1.7023   -3.3274    2.7135 C   0  0  0  0  0  0  0  0  0  0  0  0
    2.8385   -2.3865    2.3316 C   0  0  0  0  0  0  0  0  0  0  0  0
    0.7228    0.1036    0.2479 C   0  0  0  0  0  0  0  0  0  0  0  0
   -0.6133    0.3553   -0.2179 C   0  0  0  0  0  0  0  0  0  0  0  0
   -1.2560    1.5825    0.0689 C   0  0  0  0  0  0  0  0  0  0  0  0
   -0.5626    2.5882    0.7002 O   0  0  0  0  0  0  0  0  0  0  0  0
   -2.6066    1.8276   -0.2203 C   0  0  0  0  0  0  0  0  0  0  0  0
   -3.2876    3.1147    0.1770 C   0  0  0  0  0  0  0  0  0  0  0  0
   -3.7663    3.0806    1.6207 C   0  0  0  0  0  0  0  0  0  0  0  0
   -3.3340    0.8375   -0.8806 C   0  0  0  0  0  0  0  0  0  0  0  0
   -2.7221   -0.3514   -1.2983 C   0  0  0  0  0  0  0  0  0  0  0  0
   -1.3566   -0.5801   -1.0055 C   0  0  0  0  0  0  0  0  0  0  0  0
   -0.6585   -1.7858   -1.6228 C   0  0  0  0  0  0  0  0  0  0  0  0
   -1.4140   -2.4039   -2.7984 C   0  0  0  0  0  0  0  0  0  0  0  0
   -2.8633   -2.6395   -2.4074 C   0  0  0  0  0  0  0  0  0  0  0  0
   -3.5476   -1.3066   -2.1305 C   0  0  0  0  0  0  0  0  0  0  0  0
    0.5373    4.9565   -1.3371 H   0  0  0  0  0  0  0  0  0  0  0  0
    5.1158    1.4833    0.2951 H   0  0  0  0  0  0  0  0  0  0  0  0
    3.9360    2.6406   -0.2705 H   0  0  0  0  0  0  0  0  0  0  0  0
    5.4393    1.9230   -2.1137 H   0  0  0  0  0  0  0  0  0  0  0  0
    3.7826    1.4088   -2.4719 H   0  0  0  0  0  0  0  0  0  0  0  0
    4.9652    0.2310   -1.8822 H   0  0  0  0  0  0  0  0  0  0  0  0
    4.4749   -0.6618    1.1294 H   0  0  0  0  0  0  0  0  0  0  0  0
   -0.4615   -2.4920    1.1455 H   0  0  0  0  0  0  0  0  0  0  0  0
   -0.8241   -1.0848    2.1522 H   0  0  0  0  0  0  0  0  0  0  0  0
   -0.3315   -3.1887    3.4233 H   0  0  0  0  0  0  0  0  0  0  0  0
    0.6870   -1.8215    3.8776 H   0  0  0  0  0  0  0  0  0  0  0  0
    1.4804   -4.0058    1.8799 H   0  0  0  0  0  0  0  0  0  0  0  0
    2.0074   -3.9504    3.5616 H   0  0  0  0  0  0  0  0  0  0  0  0
    3.2476   -1.9369    3.2456 H   0  0  0  0  0  0  0  0  0  0  0  0
    3.6401   -2.9709    1.8639 H   0  0  0  0  0  0  0  0  0  0  0  0
   -4.1427    3.3011   -0.4846 H   0  0  0  0  0  0  0  0  0  0  0  0
   -2.6093    3.9626    0.0260 H   0  0  0  0  0  0  0  0  0  0  0  0
   -2.9319    2.9421    2.3163 H   0  0  0  0  0  0  0  0  0  0  0  0
   -4.4772    2.2633    1.7828 H   0  0  0  0  0  0  0  0  0  0  0  0
   -4.2661    4.0205    1.8754 H   0  0  0  0  0  0  0  0  0  0  0  0
   -4.3837    1.0091   -1.1149 H   0  0  0  0  0  0  0  0  0  0  0  0
   -0.5272   -2.5635   -0.8689 H   0  0  0  0  0  0  0  0  0  0  0  0
    0.3356   -1.4953   -1.9826 H   0  0  0  0  0  0  0  0  0  0  0  0
   -1.3636   -1.7419   -3.6720 H   0  0  0  0  0  0  0  0  0  0  0  0
   -0.9402   -3.3502   -3.0827 H   0  0  0  0  0  0  0  0  0  0  0  0
   -3.3941   -3.1689   -3.2064 H   0  0  0  0  0  0  0  0  0  0  0  0
   -2.9075   -3.2768   -1.5152 H   0  0  0  0  0  0  0  0  0  0  0  0
   -4.5055   -1.4974   -1.6318 H   0  0  0  0  0  0  0  0  0  0  0  0
   -3.7656   -0.8156   -3.0878 H   0  0  0  0  0  0  0  0  0  0  0  0
  2 19  1  0  0  0  0
  2  1  2  0  0  0  0
  3  2  1  0  0  0  0
  4  5  1  0  0  0  0
  4  2  1  0  0  0  0
  5  6  2  0  0  0  0
  5 16  1  0  0  0  0
  6  9  1  0  0  0  0
  7 32  1  0  0  0  0
  7  6  1  0  0  0  0
  7 31  1  0  0  0  0
  8  7  1  0  0  0  0
  9 36  1  0  0  0  0
  9 10  2  0  0  0  0
 10 15  1  0  0  0  0
 11 10  1  0  0  0  0
 11 12  1  0  0  0  0
 12 38  1  0  0  0  0
 12 13  1  0  0  0  0
 13 39  1  0  0  0  0
 13 40  1  0  0  0  0
 14 13  1  0  0  0  0
 14 42  1  0  0  0  0
 15 14  1  0  0  0  0
 15 43  1  0  0  0  0
 16 11  2  0  0  0  0
 17 18  2  0  0  0  0
 17 16  1  0  0  0  0
 18 19  1  0  0  0  0
 20 18  1  0  0  0  0
 20 21  1  0  0  0  0
 21 22  1  0  0  0  0
 22 48  1  0  0  0  0
 22 49  1  0  0  0  0
 22 47  1  0  0  0  0
 23 20  2  0  0  0  0
 24 25  2  0  0  0  0
 24 23  1  0  0  0  0
 25 17  1  0  0  0  0
 26 25  1  0  0  0  0
 26 51  1  0  0  0  0
 27 28  1  0  0  0  0
 27 26  1  0  0  0  0
 28 29  1  0  0  0  0
 28 56  1  0  0  0  0
 29 57  1  0  0  0  0
 29 24  1  0  0  0  0
 30  3  1  0  0  0  0
 33  8  1  0  0  0  0
 34  8  1  0  0  0  0
 35  8  1  0  0  0  0
 37 12  1  0  0  0  0
 41 14  1  0  0  0  0
 44 15  1  0  0  0  0
 45 21  1  0  0  0  0
 46 21  1  0  0  0  0
 50 23  1  0  0  0  0
 52 26  1  0  0  0  0
 53 27  1  0  0  0  0
 54 27  1  0  0  0  0
 55 28  1  0  0  0  0
 58 29  1  0  0  0  0
M  END
$$$$
