O=P1(O)OC2=C(C3=CC(C)=C(OC(C)C)C(C)=C3)C=C4C(C=CC=C4)=C2C5=C(O1)C(C6=CC(C)=C(OC(C)C)C(C)=C6)=CC7=C5C=CC=C7
 OpenBabel09032010373D

 90 96  0  0  0  0  0  0  0  0999 V2000
   -0.7928    1.8708   -0.4479 O   0  0  0  0  0  0  0  0  0  0  0  0
   -0.0393    0.6797    0.0558 P   0  0  0  0  0  0  0  0  0  0  0  0
    0.8591    1.0452    1.3394 O   0  0  0  0  0  0  0  0  0  0  0  0
    1.0276    0.0730   -0.9864 O   0  0  0  0  0  0  0  0  0  0  0  0
    1.6349   -1.1288   -0.6962 C   0  0  0  0  0  0  0  0  0  0  0  0
    3.0152   -1.0847   -0.4271 C   0  0  0  0  0  0  0  0  0  0  0  0
    3.7658    0.1810   -0.3791 C   0  0  0  0  0  0  0  0  0  0  0  0
    4.3044    0.6431    0.8310 C   0  0  0  0  0  0  0  0  0  0  0  0
    5.0032    1.8585    0.9071 C   0  0  0  0  0  0  0  0  0  0  0  0
    5.5330    2.3047    2.2405 C   0  0  0  0  0  0  0  0  0  0  0  0
    5.2102    2.5969   -0.2684 C   0  0  0  0  0  0  0  0  0  0  0  0
    5.9097    3.7751   -0.1840 O   0  0  0  0  0  0  0  0  0  0  0  0
    7.2285    3.6865   -0.7549 C   0  0  0  0  0  0  0  0  0  0  0  0
    8.2519    3.4210    0.3455 C   0  0  0  0  0  0  0  0  0  0  0  0
    7.5206    5.0269   -1.4236 C   0  0  0  0  0  0  0  0  0  0  0  0
    4.6221    2.1944   -1.4792 C   0  0  0  0  0  0  0  0  0  0  0  0
    4.7126    3.0217   -2.7297 C   0  0  0  0  0  0  0  0  0  0  0  0
    3.9300    0.9729   -1.5242 C   0  0  0  0  0  0  0  0  0  0  0  0
    3.6685   -2.2920   -0.1775 C   0  0  0  0  0  0  0  0  0  0  0  0
    2.9752   -3.5054   -0.1544 C   0  0  0  0  0  0  0  0  0  0  0  0
    1.5772   -3.5364   -0.4100 C   0  0  0  0  0  0  0  0  0  0  0  0
    0.9437   -4.7966   -0.2559 C   0  0  0  0  0  0  0  0  0  0  0  0
    1.6494   -5.9622    0.0554 C   0  0  0  0  0  0  0  0  0  0  0  0
    3.0201   -5.9081    0.2463 C   0  0  0  0  0  0  0  0  0  0  0  0
    3.6762   -4.6848    0.1499 C   0  0  0  0  0  0  0  0  0  0  0  0
    0.8725   -2.3221   -0.7471 C   0  0  0  0  0  0  0  0  0  0  0  0
   -0.5302   -2.2759   -1.1144 C   0  0  0  0  0  0  0  0  0  0  0  0
   -1.4199   -1.4182   -0.4166 C   0  0  0  0  0  0  0  0  0  0  0  0
   -0.9192   -0.5755    0.5525 O   0  0  0  0  0  0  0  0  0  0  0  0
   -2.8131   -1.4226   -0.5995 C   0  0  0  0  0  0  0  0  0  0  0  0
   -3.7176   -0.5828    0.1966 C   0  0  0  0  0  0  0  0  0  0  0  0
   -3.9279    0.7627   -0.1308 C   0  0  0  0  0  0  0  0  0  0  0  0
   -4.7947    1.5719    0.6216 C   0  0  0  0  0  0  0  0  0  0  0  0
   -4.9440    3.0163    0.2367 C   0  0  0  0  0  0  0  0  0  0  0  0
   -5.5091    0.9980    1.6847 C   0  0  0  0  0  0  0  0  0  0  0  0
   -6.3749    1.7914    2.3963 O   0  0  0  0  0  0  0  0  0  0  0  0
   -7.7566    1.5000    2.1171 C   0  0  0  0  0  0  0  0  0  0  0  0
   -8.5242    1.6628    3.4263 C   0  0  0  0  0  0  0  0  0  0  0  0
   -8.2926    2.4785    1.0760 C   0  0  0  0  0  0  0  0  0  0  0  0
   -5.2654   -0.3294    2.0766 C   0  0  0  0  0  0  0  0  0  0  0  0
   -5.9153   -0.9394    3.2852 C   0  0  0  0  0  0  0  0  0  0  0  0
   -4.3886   -1.1127    1.3080 C   0  0  0  0  0  0  0  0  0  0  0  0
   -3.3438   -2.2763   -1.5674 C   0  0  0  0  0  0  0  0  0  0  0  0
   -2.5212   -3.0837   -2.3577 C   0  0  0  0  0  0  0  0  0  0  0  0
   -1.1145   -3.0815   -2.1586 C   0  0  0  0  0  0  0  0  0  0  0  0
   -0.3527   -3.8618   -3.0660 C   0  0  0  0  0  0  0  0  0  0  0  0
   -0.9412   -4.6455   -4.0621 C   0  0  0  0  0  0  0  0  0  0  0  0
   -2.3194   -4.6636   -4.2006 C   0  0  0  0  0  0  0  0  0  0  0  0
   -3.1030   -3.8815   -3.3574 C   0  0  0  0  0  0  0  0  0  0  0  0
    1.2849    1.9133    1.2149 H   0  0  0  0  0  0  0  0  0  0  0  0
    4.1560    0.0554    1.7368 H   0  0  0  0  0  0  0  0  0  0  0  0
    5.6549    3.3912    2.2870 H   0  0  0  0  0  0  0  0  0  0  0  0
    6.4967    1.8282    2.4419 H   0  0  0  0  0  0  0  0  0  0  0  0
    4.8356    2.0328    3.0406 H   0  0  0  0  0  0  0  0  0  0  0  0
    7.3028    2.8941   -1.5101 H   0  0  0  0  0  0  0  0  0  0  0  0
    8.1102    2.4226    0.7700 H   0  0  0  0  0  0  0  0  0  0  0  0
    9.2745    3.4777   -0.0407 H   0  0  0  0  0  0  0  0  0  0  0  0
    8.1437    4.1375    1.1669 H   0  0  0  0  0  0  0  0  0  0  0  0
    7.4505    5.8489   -0.7024 H   0  0  0  0  0  0  0  0  0  0  0  0
    6.7864    5.2352   -2.2083 H   0  0  0  0  0  0  0  0  0  0  0  0
    8.5186    5.0385   -1.8726 H   0  0  0  0  0  0  0  0  0  0  0  0
    5.6633    2.8413   -3.2394 H   0  0  0  0  0  0  0  0  0  0  0  0
    3.9008    2.7768   -3.4235 H   0  0  0  0  0  0  0  0  0  0  0  0
    4.6165    4.0874   -2.4997 H   0  0  0  0  0  0  0  0  0  0  0  0
    3.4935    0.6397   -2.4654 H   0  0  0  0  0  0  0  0  0  0  0  0
    4.7392   -2.2774    0.0246 H   0  0  0  0  0  0  0  0  0  0  0  0
   -0.1354   -4.8897   -0.3651 H   0  0  0  0  0  0  0  0  0  0  0  0
    1.1192   -6.9059    0.1534 H   0  0  0  0  0  0  0  0  0  0  0  0
    3.5760   -6.8095    0.4891 H   0  0  0  0  0  0  0  0  0  0  0  0
    4.7493   -4.6578    0.3313 H   0  0  0  0  0  0  0  0  0  0  0  0
   -3.3956    1.1973   -0.9765 H   0  0  0  0  0  0  0  0  0  0  0  0
   -3.9823    3.4268   -0.0906 H   0  0  0  0  0  0  0  0  0  0  0  0
   -5.2763    3.6302    1.0794 H   0  0  0  0  0  0  0  0  0  0  0  0
   -5.6625    3.1161   -0.5820 H   0  0  0  0  0  0  0  0  0  0  0  0
   -7.9003    0.4754    1.7518 H   0  0  0  0  0  0  0  0  0  0  0  0
   -8.1421    0.9738    4.1863 H   0  0  0  0  0  0  0  0  0  0  0  0
   -9.5921    1.4671    3.2884 H   0  0  0  0  0  0  0  0  0  0  0  0
   -8.4019    2.6741    3.8300 H   0  0  0  0  0  0  0  0  0  0  0  0
   -9.3728    2.3636    0.9417 H   0  0  0  0  0  0  0  0  0  0  0  0
   -7.8158    2.3082    0.1062 H   0  0  0  0  0  0  0  0  0  0  0  0
   -8.0798    3.5145    1.3610 H   0  0  0  0  0  0  0  0  0  0  0  0
   -6.9230   -1.2883    3.0419 H   0  0  0  0  0  0  0  0  0  0  0  0
   -5.9658   -0.2178    4.1065 H   0  0  0  0  0  0  0  0  0  0  0  0
   -5.3376   -1.7941    3.6540 H   0  0  0  0  0  0  0  0  0  0  0  0
   -4.2086   -2.1493    1.5896 H   0  0  0  0  0  0  0  0  0  0  0  0
   -4.4226   -2.2861   -1.7209 H   0  0  0  0  0  0  0  0  0  0  0  0
    0.7349   -3.8604   -3.0171 H   0  0  0  0  0  0  0  0  0  0  0  0
   -0.3159   -5.2338   -4.7285 H   0  0  0  0  0  0  0  0  0  0  0  0
   -2.7849   -5.2699   -4.9728 H   0  0  0  0  0  0  0  0  0  0  0  0
   -4.1825   -3.8897   -3.4978 H   0  0  0  0  0  0  0  0  0  0  0  0
  1  2  2  0  0  0  0
  2 29  1  0  0  0  0
  2  3  1  0  0  0  0
  4  5  1  0  0  0  0
  4  2  1  0  0  0  0
  5  6  1  0  0  0  0
  6  7  1  0  0  0  0
  6 19  2  0  0  0  0
  7  8  2  0  0  0  0
  8  9  1  0  0  0  0
  8 51  1  0  0  0  0
  9 10  1  0  0  0  0
 10 52  1  0  0  0  0
 10 53  1  0  0  0  0
 10 54  1  0  0  0  0
 11 12  1  0  0  0  0
 11  9  2  0  0  0  0
 13 12  1  0  0  0  0
 13 14  1  0  0  0  0
 14 56  1  0  0  0  0
 14 58  1  0  0  0  0
 15 13  1  0  0  0  0
 15 59  1  0  0  0  0
 16 11  1  0  0  0  0
 17 64  1  0  0  0  0
 17 16  1  0  0  0  0
 18 16  2  0  0  0  0
 18  7  1  0  0  0  0
 19 20  1  0  0  0  0
 19 66  1  0  0  0  0
 20 25  2  0  0  0  0
 21 22  2  0  0  0  0
 21 20  1  0  0  0  0
 22 23  1  0  0  0  0
 23 68  1  0  0  0  0
 23 24  2  0  0  0  0
 24 69  1  0  0  0  0
 25 24  1  0  0  0  0
 25 70  1  0  0  0  0
 26  5  2  0  0  0  0
 26 21  1  0  0  0  0
 27 26  1  0  0  0  0
 27 28  2  0  0  0  0
 28 29  1  0  0  0  0
 30 28  1  0  0  0  0
 30 31  1  0  0  0  0
 31 42  1  0  0  0  0
 32 31  2  0  0  0  0
 32 33  1  0  0  0  0
 33 35  2  0  0  0  0
 34 33  1  0  0  0  0
 34 73  1  0  0  0  0
 35 40  1  0  0  0  0
 35 36  1  0  0  0  0
 37 36  1  0  0  0  0
 37 38  1  0  0  0  0
 38 78  1  0  0  0  0
 38 76  1  0  0  0  0
 39 81  1  0  0  0  0
 39 37  1  0  0  0  0
 40 41  1  0  0  0  0
 41 84  1  0  0  0  0
 41 83  1  0  0  0  0
 42 85  1  0  0  0  0
 42 40  2  0  0  0  0
 43 30  2  0  0  0  0
 44 45  1  0  0  0  0
 44 43  1  0  0  0  0
 45 27  1  0  0  0  0
 46 87  1  0  0  0  0
 46 45  2  0  0  0  0
 47 46  1  0  0  0  0
 48 47  2  0  0  0  0
 48 49  1  0  0  0  0
 49 44  2  0  0  0  0
 50  3  1  0  0  0  0
 55 13  1  0  0  0  0
 57 14  1  0  0  0  0
 60 15  1  0  0  0  0
 61 15  1  0  0  0  0
 62 17  1  0  0  0  0
 63 17  1  0  0  0  0
 65 18  1  0  0  0  0
 67 22  1  0  0  0  0
 71 32  1  0  0  0  0
 72 34  1  0  0  0  0
 74 34  1  0  0  0  0
 75 37  1  0  0  0  0
 77 38  1  0  0  0  0
 79 39  1  0  0  0  0
 80 39  1  0  0  0  0
 82 41  1  0  0  0  0
 86 43  1  0  0  0  0
 88 47  1  0  0  0  0
 89 48  1  0  0  0  0
 90 49  1  0  0  0  0
M  END
$$$$
