O=P1(O)OC2=C(C3=C(C4CCCCC4)C=C(C5CCCCC5)C=C3C6CCCCC6)C=C7C(C=CC=C7)=C2C8=C(O1)[C@@]([C@@]9=C(C%10CCCCC%10)C=C(C%11CCCCC%11)C=C9C%12CCCCC%12)=CC%13=C8C=CC=C%13
 OpenBabel09032010373D

154166  0  0  0  0  0  0  0  0999 V2000
    0.8422    0.3031   -1.9008 O   0  0  0  0  0  0  0  0  0  0  0  0
    0.0970    0.0378   -0.6324 P   0  0  0  0  0  0  0  0  0  0  0  0
   -0.7376   -1.3320   -0.7259 O   0  0  0  0  0  0  0  0  0  0  0  0
    0.9713   -0.1498    0.7035 O   0  0  0  0  0  0  0  0  0  0  0  0
    1.4297    0.9796    1.3421 C   0  0  0  0  0  0  0  0  0  0  0  0
    2.8243    1.1650    1.3841 C   0  0  0  0  0  0  0  0  0  0  0  0
    3.7759    0.2130    0.7672 C   0  0  0  0  0  0  0  0  0  0  0  0
    4.4415    0.5384   -0.4507 C   0  0  0  0  0  0  0  0  0  0  0  0
    4.2294    1.8709   -1.1786 C   0  0  0  0  0  0  0  0  0  0  0  0
    5.4482    2.7887   -0.9772 C   0  0  0  0  0  0  0  0  0  0  0  0
    5.2088    4.1884   -1.5465 C   0  0  0  0  0  0  0  0  0  0  0  0
    4.3652    4.1940   -2.8213 C   0  0  0  0  0  0  0  0  0  0  0  0
    4.4232    2.8594   -3.5505 C   0  0  0  0  0  0  0  0  0  0  0  0
    3.8830    1.7207   -2.6809 C   0  0  0  0  0  0  0  0  0  0  0  0
    5.3808   -0.3687   -0.9851 C   0  0  0  0  0  0  0  0  0  0  0  0
    5.6633   -1.5925   -0.3739 C   0  0  0  0  0  0  0  0  0  0  0  0
    6.6728   -2.5383   -0.9999 C   0  0  0  0  0  0  0  0  0  0  0  0
    7.8909   -2.7601   -0.0861 C   0  0  0  0  0  0  0  0  0  0  0  0
    8.9047   -3.7064   -0.7270 C   0  0  0  0  0  0  0  0  0  0  0  0
    8.2628   -5.0313   -1.1284 C   0  0  0  0  0  0  0  0  0  0  0  0
    7.0529   -4.8200   -2.0339 C   0  0  0  0  0  0  0  0  0  0  0  0
    6.0309   -3.8789   -1.3985 C   0  0  0  0  0  0  0  0  0  0  0  0
    5.0027   -1.9033    0.8165 C   0  0  0  0  0  0  0  0  0  0  0  0
    4.0730   -1.0245    1.4093 C   0  0  0  0  0  0  0  0  0  0  0  0
    3.4426   -1.4353    2.7454 C   0  0  0  0  0  0  0  0  0  0  0  0
    4.4954   -1.5969    3.8692 C   0  0  0  0  0  0  0  0  0  0  0  0
    4.6850   -3.0441    4.3140 C   0  0  0  0  0  0  0  0  0  0  0  0
    3.3739   -3.6894    4.7614 C   0  0  0  0  0  0  0  0  0  0  0  0
    2.1556   -3.2384    3.9548 C   0  0  0  0  0  0  0  0  0  0  0  0
    2.5411   -2.6778    2.5910 C   0  0  0  0  0  0  0  0  0  0  0  0
    3.3171    2.2775    2.0711 C   0  0  0  0  0  0  0  0  0  0  0  0
    2.4600    3.2178    2.6446 C   0  0  0  0  0  0  0  0  0  0  0  0
    1.0552    3.0174    2.6031 C   0  0  0  0  0  0  0  0  0  0  0  0
    0.2588    4.0668    3.1292 C   0  0  0  0  0  0  0  0  0  0  0  0
    0.8103    5.2081    3.7179 C   0  0  0  0  0  0  0  0  0  0  0  0
    2.1865    5.3509    3.7879 C   0  0  0  0  0  0  0  0  0  0  0  0
    3.0055    4.3633    3.2486 C   0  0  0  0  0  0  0  0  0  0  0  0
    0.5064    1.8212    2.0122 C   0  0  0  0  0  0  0  0  0  0  0  0
   -0.8917    1.4435    2.1160 C   0  0  0  0  0  0  0  0  0  0  0  0
   -1.6390    1.1011    0.9617 C   0  0  0  0  0  0  0  0  0  0  0  0
   -1.0299    1.1245   -0.2715 O   0  0  0  0  0  0  0  0  0  0  0  0
   -3.0261    0.8528    0.9698 C   0  0  0  0  0  0  0  0  0  0  0  0
   -3.7789    0.5074   -0.2590 C   0  0  0  0  0  0  0  0  0  0  0  0
   -4.1135    1.5131   -1.2109 C   0  0  0  0  0  0  0  0  0  0  0  0
   -3.7683    2.9930   -1.0045 C   0  0  0  0  0  0  0  0  0  0  0  0
   -5.0332    3.8720   -0.8498 C   0  0  0  0  0  0  0  0  0  0  0  0
   -5.2619    4.8108   -2.0306 C   0  0  0  0  0  0  0  0  0  0  0  0
   -4.0574    5.7137   -2.2947 C   0  0  0  0  0  0  0  0  0  0  0  0
   -2.7100    5.0378   -2.0385 C   0  0  0  0  0  0  0  0  0  0  0  0
   -2.8075    3.5178   -2.0921 C   0  0  0  0  0  0  0  0  0  0  0  0
   -4.8259    1.1525   -2.3736 C   0  0  0  0  0  0  0  0  0  0  0  0
   -5.2331   -0.1610   -2.6182 C   0  0  0  0  0  0  0  0  0  0  0  0
   -6.0168   -0.4902   -3.8763 C   0  0  0  0  0  0  0  0  0  0  0  0
   -5.3963   -1.6404   -4.6832 C   0  0  0  0  0  0  0  0  0  0  0  0
   -6.1060   -1.8327   -6.0269 C   0  0  0  0  0  0  0  0  0  0  0  0
   -7.5885   -1.4559   -5.9963 C   0  0  0  0  0  0  0  0  0  0  0  0
   -8.1940   -1.6401   -4.6117 C   0  0  0  0  0  0  0  0  0  0  0  0
   -7.5008   -0.7682   -3.5603 C   0  0  0  0  0  0  0  0  0  0  0  0
   -4.9306   -1.1344   -1.6638 C   0  0  0  0  0  0  0  0  0  0  0  0
   -4.2018   -0.8359   -0.4936 C   0  0  0  0  0  0  0  0  0  0  0  0
   -3.9672   -1.9690    0.5153 C   0  0  0  0  0  0  0  0  0  0  0  0
   -3.3276   -3.2399   -0.1003 C   0  0  0  0  0  0  0  0  0  0  0  0
   -3.8715   -4.5453    0.4842 C   0  0  0  0  0  0  0  0  0  0  0  0
   -4.0776   -4.4330    1.9882 C   0  0  0  0  0  0  0  0  0  0  0  0
   -5.0730   -3.3331    2.3563 C   0  0  0  0  0  0  0  0  0  0  0  0
   -5.2800   -2.2989    1.2494 C   0  0  0  0  0  0  0  0  0  0  0  0
   -3.6995    0.9428    2.1894 C   0  0  0  0  0  0  0  0  0  0  0  0
   -3.0135    1.1765    3.3818 C   0  0  0  0  0  0  0  0  0  0  0  0
   -1.6102    1.3962    3.3669 C   0  0  0  0  0  0  0  0  0  0  0  0
   -0.9852    1.5092    4.6356 C   0  0  0  0  0  0  0  0  0  0  0  0
   -1.7016    1.4807    5.8351 C   0  0  0  0  0  0  0  0  0  0  0  0
   -3.0768    1.3191    5.8118 C   0  0  0  0  0  0  0  0  0  0  0  0
   -3.7271    1.1618    4.5919 C   0  0  0  0  0  0  0  0  0  0  0  0
   -1.1951   -1.3834   -1.5847 H   0  0  0  0  0  0  0  0  0  0  0  0
    3.3674    2.3866   -0.7399 H   0  0  0  0  0  0  0  0  0  0  0  0
    5.7077    2.8753    0.0846 H   0  0  0  0  0  0  0  0  0  0  0  0
    6.3295    2.3528   -1.4665 H   0  0  0  0  0  0  0  0  0  0  0  0
    4.7148    4.8152   -0.7939 H   0  0  0  0  0  0  0  0  0  0  0  0
    6.1805    4.6575   -1.7431 H   0  0  0  0  0  0  0  0  0  0  0  0
    3.3219    4.4163   -2.5635 H   0  0  0  0  0  0  0  0  0  0  0  0
    4.7004    5.0024   -3.4809 H   0  0  0  0  0  0  0  0  0  0  0  0
    3.8469    2.9131   -4.4811 H   0  0  0  0  0  0  0  0  0  0  0  0
    5.4604    2.6433   -3.8358 H   0  0  0  0  0  0  0  0  0  0  0  0
    2.7913    1.7042   -2.7771 H   0  0  0  0  0  0  0  0  0  0  0  0
    4.2219    0.7706   -3.1068 H   0  0  0  0  0  0  0  0  0  0  0  0
    5.9096   -0.1074   -1.9001 H   0  0  0  0  0  0  0  0  0  0  0  0
    7.0455   -2.0746   -1.9247 H   0  0  0  0  0  0  0  0  0  0  0  0
    7.5794   -3.1782    0.8796 H   0  0  0  0  0  0  0  0  0  0  0  0
    8.3772   -1.8011    0.1318 H   0  0  0  0  0  0  0  0  0  0  0  0
    9.3407   -3.2284   -1.6128 H   0  0  0  0  0  0  0  0  0  0  0  0
    9.7275   -3.8926   -0.0276 H   0  0  0  0  0  0  0  0  0  0  0  0
    9.0013   -5.6580   -1.6408 H   0  0  0  0  0  0  0  0  0  0  0  0
    7.9531   -5.5742   -0.2269 H   0  0  0  0  0  0  0  0  0  0  0  0
    6.5805   -5.7852   -2.2487 H   0  0  0  0  0  0  0  0  0  0  0  0
    7.3831   -4.4054   -2.9943 H   0  0  0  0  0  0  0  0  0  0  0  0
    5.2084   -3.7069   -2.1038 H   0  0  0  0  0  0  0  0  0  0  0  0
    5.5924   -4.3740   -0.5228 H   0  0  0  0  0  0  0  0  0  0  0  0
    5.2236   -2.8493    1.3049 H   0  0  0  0  0  0  0  0  0  0  0  0
    2.7889   -0.6307    3.0969 H   0  0  0  0  0  0  0  0  0  0  0  0
    5.4620   -1.1639    3.5849 H   0  0  0  0  0  0  0  0  0  0  0  0
    4.1588   -1.0202    4.7419 H   0  0  0  0  0  0  0  0  0  0  0  0
    5.4123   -3.0914    5.1327 H   0  0  0  0  0  0  0  0  0  0  0  0
    5.1131   -3.6285    3.4913 H   0  0  0  0  0  0  0  0  0  0  0  0
    3.1952   -3.4686    5.8209 H   0  0  0  0  0  0  0  0  0  0  0  0
    3.4793   -4.7790    4.6931 H   0  0  0  0  0  0  0  0  0  0  0  0
    1.4615   -4.0782    3.8362 H   0  0  0  0  0  0  0  0  0  0  0  0
    1.6143   -2.4679    4.5186 H   0  0  0  0  0  0  0  0  0  0  0  0
    3.0337   -3.4667    2.0096 H   0  0  0  0  0  0  0  0  0  0  0  0
    1.6353   -2.4116    2.0338 H   0  0  0  0  0  0  0  0  0  0  0  0
    4.3956    2.4205    2.1277 H   0  0  0  0  0  0  0  0  0  0  0  0
   -0.8273    4.0141    3.0753 H   0  0  0  0  0  0  0  0  0  0  0  0
    0.1578    5.9814    4.1145 H   0  0  0  0  0  0  0  0  0  0  0  0
    2.6240    6.2344    4.2445 H   0  0  0  0  0  0  0  0  0  0  0  0
    4.0842    4.5039    3.2903 H   0  0  0  0  0  0  0  0  0  0  0  0
   -3.2354    3.1072   -0.0549 H   0  0  0  0  0  0  0  0  0  0  0  0
   -4.9157    4.4897    0.0513 H   0  0  0  0  0  0  0  0  0  0  0  0
   -5.9301    3.2650   -0.6768 H   0  0  0  0  0  0  0  0  0  0  0  0
   -5.4775    4.2231   -2.9304 H   0  0  0  0  0  0  0  0  0  0  0  0
   -6.1485    5.4296   -1.8502 H   0  0  0  0  0  0  0  0  0  0  0  0
   -4.1242    6.6125   -1.6694 H   0  0  0  0  0  0  0  0  0  0  0  0
   -4.1037    6.0636   -3.3332 H   0  0  0  0  0  0  0  0  0  0  0  0
   -2.3370    5.3382   -1.0510 H   0  0  0  0  0  0  0  0  0  0  0  0
   -1.9742    5.3958   -2.7677 H   0  0  0  0  0  0  0  0  0  0  0  0
   -3.1283    3.2192   -3.0973 H   0  0  0  0  0  0  0  0  0  0  0  0
   -1.8125    3.0803   -1.9498 H   0  0  0  0  0  0  0  0  0  0  0  0
   -5.0831    1.9215   -3.0993 H   0  0  0  0  0  0  0  0  0  0  0  0
   -5.9836    0.3946   -4.5290 H   0  0  0  0  0  0  0  0  0  0  0  0
   -4.3282   -1.4632   -4.8600 H   0  0  0  0  0  0  0  0  0  0  0  0
   -5.4608   -2.5781   -4.1162 H   0  0  0  0  0  0  0  0  0  0  0  0
   -5.6075   -1.2338   -6.7988 H   0  0  0  0  0  0  0  0  0  0  0  0
   -5.9954   -2.8795   -6.3350 H   0  0  0  0  0  0  0  0  0  0  0  0
   -7.7035   -0.4081   -6.3016 H   0  0  0  0  0  0  0  0  0  0  0  0
   -8.1350   -2.0555   -6.7331 H   0  0  0  0  0  0  0  0  0  0  0  0
   -8.1087   -2.6947   -4.3206 H   0  0  0  0  0  0  0  0  0  0  0  0
   -9.2648   -1.4081   -4.6318 H   0  0  0  0  0  0  0  0  0  0  0  0
   -8.0242    0.1941   -3.4828 H   0  0  0  0  0  0  0  0  0  0  0  0
   -7.6261   -1.2500   -2.5825 H   0  0  0  0  0  0  0  0  0  0  0  0
   -5.2894   -2.1503   -1.8209 H   0  0  0  0  0  0  0  0  0  0  0  0
   -3.2520   -1.6341    1.2748 H   0  0  0  0  0  0  0  0  0  0  0  0
   -3.4176   -3.2805   -1.1910 H   0  0  0  0  0  0  0  0  0  0  0  0
   -2.2489   -3.2058    0.0963 H   0  0  0  0  0  0  0  0  0  0  0  0
   -3.1761   -5.3626    0.2612 H   0  0  0  0  0  0  0  0  0  0  0  0
   -4.8218   -4.8002   -0.0008 H   0  0  0  0  0  0  0  0  0  0  0  0
   -4.4196   -5.3910    2.3960 H   0  0  0  0  0  0  0  0  0  0  0  0
   -3.1130   -4.2202    2.4665 H   0  0  0  0  0  0  0  0  0  0  0  0
   -6.0432   -3.7804    2.6042 H   0  0  0  0  0  0  0  0  0  0  0  0
   -4.7264   -2.8335    3.2694 H   0  0  0  0  0  0  0  0  0  0  0  0
   -5.7265   -1.3966    1.6838 H   0  0  0  0  0  0  0  0  0  0  0  0
   -6.0216   -2.6855    0.5376 H   0  0  0  0  0  0  0  0  0  0  0  0
   -4.7767    0.7829    2.2054 H   0  0  0  0  0  0  0  0  0  0  0  0
    0.0964    1.6079    4.7115 H   0  0  0  0  0  0  0  0  0  0  0  0
   -1.1763    1.5786    6.7813 H   0  0  0  0  0  0  0  0  0  0  0  0
   -3.6416    1.2935    6.7390 H   0  0  0  0  0  0  0  0  0  0  0  0
   -4.8043    1.0058    4.5953 H   0  0  0  0  0  0  0  0  0  0  0  0
  1  2  2  0  0  0  0
  2 41  1  0  0  0  0
  2  4  1  0  0  0  0
  3  2  1  0  0  0  0
  4  5  1  0  0  0  0
  5  6  2  0  0  0  0
  5 38  1  0  0  0  0
  6 31  1  0  0  0  0
  7  6  1  0  0  0  0
  7 24  2  0  0  0  0
  8  7  1  0  0  0  0
  9 10  1  0  0  0  0
  9 75  1  0  0  0  0
  9  8  1  0  0  0  0
 10 76  1  0  0  0  0
 11 10  1  0  0  0  0
 11 78  1  0  0  0  0
 12 80  1  0  0  0  0
 12 11  1  0  0  0  0
 13 12  1  0  0  0  0
 13 14  1  0  0  0  0
 14  9  1  0  0  0  0
 15  8  2  0  0  0  0
 15 16  1  0  0  0  0
 16 23  2  0  0  0  0
 17 16  1  0  0  0  0
 17 18  1  0  0  0  0
 18 89  1  0  0  0  0
 18 88  1  0  0  0  0
 19 18  1  0  0  0  0
 19 91  1  0  0  0  0
 20 19  1  0  0  0  0
 20 93  1  0  0  0  0
 21 22  1  0  0  0  0
 21 20  1  0  0  0  0
 22 17  1  0  0  0  0
 22 97  1  0  0  0  0
 23 98  1  0  0  0  0
 23 24  1  0  0  0  0
 24 25  1  0  0  0  0
 25 99  1  0  0  0  0
 25 26  1  0  0  0  0
 26 27  1  0  0  0  0
 26101  1  0  0  0  0
 27 28  1  0  0  0  0
 27102  1  0  0  0  0
 28104  1  0  0  0  0
 29107  1  0  0  0  0
 29 28  1  0  0  0  0
 30 25  1  0  0  0  0
 30 29  1  0  0  0  0
 31110  1  0  0  0  0
 31 32  2  0  0  0  0
 32 37  1  0  0  0  0
 33 32  1  0  0  0  0
 33 34  1  0  0  0  0
 34 35  2  0  0  0  0
 35 36  1  0  0  0  0
 35112  1  0  0  0  0
 36113  1  0  0  0  0
 37114  1  0  0  0  0
 37 36  2  0  0  0  0
 38 39  1  0  0  0  0
 38 33  2  0  0  0  0
 39 69  2  0  0  0  0
 40 42  2  0  0  0  0
 40 39  1  0  0  0  0
 41 40  1  0  0  0  0
 42 67  1  0  0  0  0
 43 42  1  0  0  0  0
 44 45  1  0  0  0  0
 44 43  2  0  0  0  0
 45 46  1  0  0  0  0
 45115  1  0  0  0  0
 46117  1  0  0  0  0
 46116  1  0  0  0  0
 47119  1  0  0  0  0
 47 46  1  0  0  0  0
 48 49  1  0  0  0  0
 48 47  1  0  0  0  0
 48120  1  0  0  0  0
 49122  1  0  0  0  0
 50 49  1  0  0  0  0
 50125  1  0  0  0  0
 50 45  1  0  0  0  0
 51 44  1  0  0  0  0
 52 51  2  0  0  0  0
 52 59  1  0  0  0  0
 53 58  1  0  0  0  0
 53 52  1  0  0  0  0
 54129  1  0  0  0  0
 54 53  1  0  0  0  0
 55 56  1  0  0  0  0
 55 54  1  0  0  0  0
 56 57  1  0  0  0  0
 57134  1  0  0  0  0
 57 58  1  0  0  0  0
 58136  1  0  0  0  0
 58137  1  0  0  0  0
 59 60  2  0  0  0  0
 60 43  1  0  0  0  0
 60 61  1  0  0  0  0
 61 66  1  0  0  0  0
 61139  1  0  0  0  0
 62141  1  0  0  0  0
 62 63  1  0  0  0  0
 62 61  1  0  0  0  0
 63 64  1  0  0  0  0
 64 65  1  0  0  0  0
 64144  1  0  0  0  0
 64145  1  0  0  0  0
 65146  1  0  0  0  0
 65147  1  0  0  0  0
 66148  1  0  0  0  0
 66 65  1  0  0  0  0
 67150  1  0  0  0  0
 67 68  2  0  0  0  0
 68 73  1  0  0  0  0
 69 68  1  0  0  0  0
 69 70  1  0  0  0  0
 70151  1  0  0  0  0
 70 71  2  0  0  0  0
 71152  1  0  0  0  0
 72 71  1  0  0  0  0
 72153  1  0  0  0  0
 73154  1  0  0  0  0
 73 72  2  0  0  0  0
 74  3  1  0  0  0  0
 77 10  1  0  0  0  0
 79 11  1  0  0  0  0
 81 12  1  0  0  0  0
 82 13  1  0  0  0  0
 83 13  1  0  0  0  0
 84 14  1  0  0  0  0
 85 14  1  0  0  0  0
 86 15  1  0  0  0  0
 87 17  1  0  0  0  0
 90 19  1  0  0  0  0
 92 20  1  0  0  0  0
 94 21  1  0  0  0  0
 95 21  1  0  0  0  0
 96 22  1  0  0  0  0
100 26  1  0  0  0  0
103 27  1  0  0  0  0
105 28  1  0  0  0  0
106 29  1  0  0  0  0
108 30  1  0  0  0  0
109 30  1  0  0  0  0
111 34  1  0  0  0  0
118 47  1  0  0  0  0
121 48  1  0  0  0  0
123 49  1  0  0  0  0
124 50  1  0  0  0  0
126 51  1  0  0  0  0
127 53  1  0  0  0  0
128 54  1  0  0  0  0
130 55  1  0  0  0  0
131 55  1  0  0  0  0
132 56  1  0  0  0  0
133 56  1  0  0  0  0
135 57  1  0  0  0  0
138 59  1  0  0  0  0
140 62  1  0  0  0  0
142 63  1  0  0  0  0
143 63  1  0  0  0  0
149 66  1  0  0  0  0
M  END
$$$$
