O=P1(O)OC2=C(C3=CC(C(F)(F)F)=CC(C(F)(F)F)=C3)C=C4C(C=CC=C4)=C2C5=C(O1)C(C6=CC(C(F)(F)F)=CC(C(F)(F)F)=C6)=CC7=C5C=CC=C7
 OpenBabel09032010373D

 70 76  0  0  0  0  0  0  0  0999 V2000
   -1.8359    1.9741   -0.9887 O   0  0  0  0  0  0  0  0  0  0  0  0
   -1.0447    1.2309    0.0423 P   0  0  0  0  0  0  0  0  0  0  0  0
   -1.4165    1.7808    1.5059 O   0  0  0  0  0  0  0  0  0  0  0  0
   -1.3410   -0.3462    0.1577 O   0  0  0  0  0  0  0  0  0  0  0  0
   -0.8241   -1.1437   -0.8372 C   0  0  0  0  0  0  0  0  0  0  0  0
   -1.7494   -1.7665   -1.6979 C   0  0  0  0  0  0  0  0  0  0  0  0
   -3.1995   -1.6006   -1.5242 C   0  0  0  0  0  0  0  0  0  0  0  0
   -3.9887   -2.6335   -0.9965 C   0  0  0  0  0  0  0  0  0  0  0  0
   -5.3595   -2.4485   -0.7453 C   0  0  0  0  0  0  0  0  0  0  0  0
   -6.1791   -3.5681   -0.1485 C   0  0  0  0  0  0  0  0  0  0  0  0
   -5.8347   -4.7932   -0.6335 F   0  0  0  0  0  0  0  0  0  0  0  0
   -7.5147   -3.4382   -0.3822 F   0  0  0  0  0  0  0  0  0  0  0  0
   -6.0405   -3.6459    1.2029 F   0  0  0  0  0  0  0  0  0  0  0  0
   -5.9332   -1.1916   -0.9987 C   0  0  0  0  0  0  0  0  0  0  0  0
   -5.1666   -0.1467   -1.5351 C   0  0  0  0  0  0  0  0  0  0  0  0
   -5.7350    1.2367   -1.7366 C   0  0  0  0  0  0  0  0  0  0  0  0
   -5.4066    1.7785   -2.9407 F   0  0  0  0  0  0  0  0  0  0  0  0
   -7.0971    1.2677   -1.6759 F   0  0  0  0  0  0  0  0  0  0  0  0
   -5.3008    2.1151   -0.7894 F   0  0  0  0  0  0  0  0  0  0  0  0
   -3.8158   -0.3798   -1.8259 C   0  0  0  0  0  0  0  0  0  0  0  0
   -1.2508   -2.5627   -2.7262 C   0  0  0  0  0  0  0  0  0  0  0  0
    0.1249   -2.7112   -2.9234 C   0  0  0  0  0  0  0  0  0  0  0  0
    1.0482   -2.0940   -2.0342 C   0  0  0  0  0  0  0  0  0  0  0  0
    2.4208   -2.2272   -2.3631 C   0  0  0  0  0  0  0  0  0  0  0  0
    2.8606   -2.9703   -3.4621 C   0  0  0  0  0  0  0  0  0  0  0  0
    1.9387   -3.5980   -4.2843 C   0  0  0  0  0  0  0  0  0  0  0  0
    0.5794   -3.4645   -4.0185 C   0  0  0  0  0  0  0  0  0  0  0  0
    0.5756   -1.3393   -0.9001 C   0  0  0  0  0  0  0  0  0  0  0  0
    1.4354   -0.8304    0.1580 C   0  0  0  0  0  0  0  0  0  0  0  0
    1.4079    0.5381    0.5420 C   0  0  0  0  0  0  0  0  0  0  0  0
    0.5461    1.4152   -0.0806 O   0  0  0  0  0  0  0  0  0  0  0  0
    2.3152    1.1127    1.4578 C   0  0  0  0  0  0  0  0  0  0  0  0
    2.3008    2.5498    1.7724 C   0  0  0  0  0  0  0  0  0  0  0  0
    1.2282    3.1124    2.4752 C   0  0  0  0  0  0  0  0  0  0  0  0
    1.1219    4.4957    2.6773 C   0  0  0  0  0  0  0  0  0  0  0  0
   -0.1267    5.0471    3.3213 C   0  0  0  0  0  0  0  0  0  0  0  0
   -0.2713    4.6457    4.6131 F   0  0  0  0  0  0  0  0  0  0  0  0
   -0.1729    6.4077    3.3421 F   0  0  0  0  0  0  0  0  0  0  0  0
   -1.2597    4.6426    2.6717 F   0  0  0  0  0  0  0  0  0  0  0  0
    2.1675    5.3228    2.2436 C   0  0  0  0  0  0  0  0  0  0  0  0
    3.2857    4.7822    1.5858 C   0  0  0  0  0  0  0  0  0  0  0  0
    4.4324    5.6595    1.1419 C   0  0  0  0  0  0  0  0  0  0  0  0
    5.4908    5.5938    1.9952 F   0  0  0  0  0  0  0  0  0  0  0  0
    4.9159    5.3171   -0.0841 F   0  0  0  0  0  0  0  0  0  0  0  0
    4.1000    6.9776    1.0571 F   0  0  0  0  0  0  0  0  0  0  0  0
    3.3338    3.3972    1.3488 C   0  0  0  0  0  0  0  0  0  0  0  0
    3.2544    0.2805    2.0636 C   0  0  0  0  0  0  0  0  0  0  0  0
    3.2829   -1.0905    1.8033 C   0  0  0  0  0  0  0  0  0  0  0  0
    2.3693   -1.6634    0.8764 C   0  0  0  0  0  0  0  0  0  0  0  0
    2.4101   -3.0763    0.7585 C   0  0  0  0  0  0  0  0  0  0  0  0
    3.3351   -3.8640    1.4490 C   0  0  0  0  0  0  0  0  0  0  0  0
    4.2472   -3.2693    2.3046 C   0  0  0  0  0  0  0  0  0  0  0  0
    4.2145   -1.8908    2.4860 C   0  0  0  0  0  0  0  0  0  0  0  0
   -2.0437    2.5265    1.4230 H   0  0  0  0  0  0  0  0  0  0  0  0
   -3.5240   -3.5894   -0.7516 H   0  0  0  0  0  0  0  0  0  0  0  0
   -6.9862   -1.0232   -0.7665 H   0  0  0  0  0  0  0  0  0  0  0  0
   -3.2266    0.4258   -2.2648 H   0  0  0  0  0  0  0  0  0  0  0  0
   -1.9515   -3.0442   -3.4074 H   0  0  0  0  0  0  0  0  0  0  0  0
    3.1844   -1.7331   -1.7643 H   0  0  0  0  0  0  0  0  0  0  0  0
    3.9246   -3.0481   -3.6717 H   0  0  0  0  0  0  0  0  0  0  0  0
    2.2730   -4.1772   -5.1407 H   0  0  0  0  0  0  0  0  0  0  0  0
   -0.1288   -3.9460   -4.6905 H   0  0  0  0  0  0  0  0  0  0  0  0
    0.4387    2.4610    2.8502 H   0  0  0  0  0  0  0  0  0  0  0  0
    2.1075    6.3998    2.4088 H   0  0  0  0  0  0  0  0  0  0  0  0
    4.1821    2.9772    0.8066 H   0  0  0  0  0  0  0  0  0  0  0  0
    3.9564    0.7099    2.7775 H   0  0  0  0  0  0  0  0  0  0  0  0
    1.6978   -3.6029    0.1250 H   0  0  0  0  0  0  0  0  0  0  0  0
    3.3283   -4.9429    1.3172 H   0  0  0  0  0  0  0  0  0  0  0  0
    4.9688   -3.8754    2.8453 H   0  0  0  0  0  0  0  0  0  0  0  0
    4.9208   -1.4447    3.1840 H   0  0  0  0  0  0  0  0  0  0  0  0
  1  2  2  0  0  0  0
  2  4  1  0  0  0  0
  2  3  1  0  0  0  0
  5  4  1  0  0  0  0
  6  7  1  0  0  0  0
  6  5  2  0  0  0  0
  7  8  2  0  0  0  0
  8 55  1  0  0  0  0
  8  9  1  0  0  0  0
  9 10  1  0  0  0  0
 10 13  1  0  0  0  0
 11 10  1  0  0  0  0
 12 10  1  0  0  0  0
 14 56  1  0  0  0  0
 14  9  2  0  0  0  0
 15 14  1  0  0  0  0
 16 18  1  0  0  0  0
 16 15  1  0  0  0  0
 16 19  1  0  0  0  0
 17 16  1  0  0  0  0
 20 15  2  0  0  0  0
 20  7  1  0  0  0  0
 21  6  1  0  0  0  0
 22 21  2  0  0  0  0
 22 23  1  0  0  0  0
 23 28  2  0  0  0  0
 24 23  1  0  0  0  0
 24 59  1  0  0  0  0
 25 24  2  0  0  0  0
 26 27  2  0  0  0  0
 26 25  1  0  0  0  0
 27 22  1  0  0  0  0
 28  5  1  0  0  0  0
 28 29  1  0  0  0  0
 29 30  2  0  0  0  0
 29 49  1  0  0  0  0
 30 32  1  0  0  0  0
 31  2  1  0  0  0  0
 31 30  1  0  0  0  0
 32 33  1  0  0  0  0
 32 47  2  0  0  0  0
 33 34  2  0  0  0  0
 34 35  1  0  0  0  0
 34 63  1  0  0  0  0
 35 36  1  0  0  0  0
 36 38  1  0  0  0  0
 36 37  1  0  0  0  0
 39 36  1  0  0  0  0
 40 64  1  0  0  0  0
 40 35  2  0  0  0  0
 41 40  1  0  0  0  0
 42 41  1  0  0  0  0
 42 43  1  0  0  0  0
 44 42  1  0  0  0  0
 45 42  1  0  0  0  0
 46 41  2  0  0  0  0
 46 33  1  0  0  0  0
 47 66  1  0  0  0  0
 48 47  1  0  0  0  0
 48 53  2  0  0  0  0
 49 48  1  0  0  0  0
 50 49  2  0  0  0  0
 50 51  1  0  0  0  0
 51 52  2  0  0  0  0
 52 53  1  0  0  0  0
 52 69  1  0  0  0  0
 53 70  1  0  0  0  0
 54  3  1  0  0  0  0
 57 20  1  0  0  0  0
 58 21  1  0  0  0  0
 60 25  1  0  0  0  0
 61 26  1  0  0  0  0
 62 27  1  0  0  0  0
 65 46  1  0  0  0  0
 67 50  1  0  0  0  0
 68 51  1  0  0  0  0
M  END
$$$$
