O=P1(O)OC2=C([Si](C3=CC=CC=C3)(C4=CC=CC=C4)C5=CC=CC=C5)C=C6C(CCCC6)=C2C7=C(O1)C([Si](C8=CC=CC=C8)(C9=CC=CC=C9)C%10=CC=CC=C%10)=CC%11=C7CCCC%11
 OpenBabel09032010383D

112122  0  0  0  0  0  0  0  0999 V2000
    1.1336    2.4879    0.9217 O   0  0  0  0  0  0  0  0  0  0  0  0
    0.1976    1.5950    0.1684 P   0  0  0  0  0  0  0  0  0  0  0  0
   -0.5397    2.3857   -1.0172 O   0  0  0  0  0  0  0  0  0  0  0  0
   -1.0006    0.9448    1.0221 O   0  0  0  0  0  0  0  0  0  0  0  0
   -1.5529   -0.2781    0.7099 C   0  0  0  0  0  0  0  0  0  0  0  0
   -2.9523   -0.3231    0.4970 C   0  0  0  0  0  0  0  0  0  0  0  0
   -4.0517    1.1970    0.4185 Si  0  0  0  0  0  0  0  0  0  0  0  0
   -4.0682    1.8521   -1.3402 C   0  0  0  0  0  0  0  0  0  0  0  0
   -3.1894    1.3628   -2.3254 C   0  0  0  0  0  0  0  0  0  0  0  0
   -3.2147    1.8587   -3.6321 C   0  0  0  0  0  0  0  0  0  0  0  0
   -4.1248    2.8486   -3.9865 C   0  0  0  0  0  0  0  0  0  0  0  0
   -5.0143    3.3412   -3.0369 C   0  0  0  0  0  0  0  0  0  0  0  0
   -4.9888    2.8482   -1.7292 C   0  0  0  0  0  0  0  0  0  0  0  0
   -3.4711    2.4946    1.6220 C   0  0  0  0  0  0  0  0  0  0  0  0
   -3.2251    3.8243    1.2299 C   0  0  0  0  0  0  0  0  0  0  0  0
   -2.7811    4.7825    2.1471 C   0  0  0  0  0  0  0  0  0  0  0  0
   -2.5658    4.4343    3.4764 C   0  0  0  0  0  0  0  0  0  0  0  0
   -2.7843    3.1249    3.8893 C   0  0  0  0  0  0  0  0  0  0  0  0
   -3.2257    2.1661    2.9730 C   0  0  0  0  0  0  0  0  0  0  0  0
   -5.8378    0.7178    0.8044 C   0  0  0  0  0  0  0  0  0  0  0  0
   -6.6617    0.1529   -0.1947 C   0  0  0  0  0  0  0  0  0  0  0  0
   -7.9878   -0.2055    0.0678 C   0  0  0  0  0  0  0  0  0  0  0  0
   -8.5263   -0.0070    1.3342 C   0  0  0  0  0  0  0  0  0  0  0  0
   -7.7388    0.5506    2.3363 C   0  0  0  0  0  0  0  0  0  0  0  0
   -6.4113    0.9097    2.0754 C   0  0  0  0  0  0  0  0  0  0  0  0
   -3.5132   -1.5877    0.2585 C   0  0  0  0  0  0  0  0  0  0  0  0
   -2.7296   -2.7451    0.1547 C   0  0  0  0  0  0  0  0  0  0  0  0
   -1.3300   -2.6636    0.3181 C   0  0  0  0  0  0  0  0  0  0  0  0
   -0.4803   -3.8842   -0.0254 C   0  0  0  0  0  0  0  0  0  0  0  0
   -1.2085   -4.9399   -0.8562 C   0  0  0  0  0  0  0  0  0  0  0  0
   -2.5462   -5.2596   -0.2126 C   0  0  0  0  0  0  0  0  0  0  0  0
   -3.4357   -4.0240   -0.2392 C   0  0  0  0  0  0  0  0  0  0  0  0
   -0.7119   -1.4341    0.7015 C   0  0  0  0  0  0  0  0  0  0  0  0
    0.7040   -1.3640    0.9660 C   0  0  0  0  0  0  0  0  0  0  0  0
    1.5263   -0.5575    0.1456 C   0  0  0  0  0  0  0  0  0  0  0  0
    0.8861    0.3726   -0.6268 O   0  0  0  0  0  0  0  0  0  0  0  0
    2.9320   -0.6226    0.0991 C   0  0  0  0  0  0  0  0  0  0  0  0
    4.0065    0.3519   -1.1006 Si  0  0  0  0  0  0  0  0  0  0  0  0
    3.0051    1.4044   -2.2892 C   0  0  0  0  0  0  0  0  0  0  0  0
    3.1292    2.8080   -2.3204 C   0  0  0  0  0  0  0  0  0  0  0  0
    2.3427    3.5916   -3.1727 C   0  0  0  0  0  0  0  0  0  0  0  0
    1.4090    2.9938   -4.0125 C   0  0  0  0  0  0  0  0  0  0  0  0
    1.2677    1.6113   -4.0096 C   0  0  0  0  0  0  0  0  0  0  0  0
    2.0586    0.8274   -3.1643 C   0  0  0  0  0  0  0  0  0  0  0  0
    5.1191   -0.8391   -2.0361 C   0  0  0  0  0  0  0  0  0  0  0  0
    4.9645   -1.0913   -3.4127 C   0  0  0  0  0  0  0  0  0  0  0  0
    5.8054   -1.9800   -4.0923 C   0  0  0  0  0  0  0  0  0  0  0  0
    6.8279   -2.6349   -3.4157 C   0  0  0  0  0  0  0  0  0  0  0  0
    7.0158   -2.3962   -2.0597 C   0  0  0  0  0  0  0  0  0  0  0  0
    6.1750   -1.5087   -1.3803 C   0  0  0  0  0  0  0  0  0  0  0  0
    5.1043    1.4998   -0.0978 C   0  0  0  0  0  0  0  0  0  0  0  0
    4.6514    2.0553    1.1148 C   0  0  0  0  0  0  0  0  0  0  0  0
    5.4462    2.9426    1.8439 C   0  0  0  0  0  0  0  0  0  0  0  0
    6.7101    3.2925    1.3800 C   0  0  0  0  0  0  0  0  0  0  0  0
    7.1800    2.7600    0.1834 C   0  0  0  0  0  0  0  0  0  0  0  0
    6.3841    1.8773   -0.5520 C   0  0  0  0  0  0  0  0  0  0  0  0
    3.5296   -1.4589    1.0561 C   0  0  0  0  0  0  0  0  0  0  0  0
    2.7769   -2.1678    2.0102 C   0  0  0  0  0  0  0  0  0  0  0  0
    1.3678   -2.0999    1.9885 C   0  0  0  0  0  0  0  0  0  0  0  0
    0.5641   -2.7321    3.1150 C   0  0  0  0  0  0  0  0  0  0  0  0
    1.3952   -3.0554    4.3559 C   0  0  0  0  0  0  0  0  0  0  0  0
    2.6517   -3.8091    3.9517 C   0  0  0  0  0  0  0  0  0  0  0  0
    3.5334   -2.9204    3.0819 C   0  0  0  0  0  0  0  0  0  0  0  0
    0.1110    2.9288   -1.4999 H   0  0  0  0  0  0  0  0  0  0  0  0
   -2.4538    0.5944   -2.0932 H   0  0  0  0  0  0  0  0  0  0  0  0
   -2.5170    1.4698   -4.3688 H   0  0  0  0  0  0  0  0  0  0  0  0
   -4.1398    3.2342   -5.0016 H   0  0  0  0  0  0  0  0  0  0  0  0
   -5.7314    4.1107   -3.3107 H   0  0  0  0  0  0  0  0  0  0  0  0
   -5.7024    3.2555   -1.0125 H   0  0  0  0  0  0  0  0  0  0  0  0
   -3.3571    4.1414    0.1966 H   0  0  0  0  0  0  0  0  0  0  0  0
   -2.5981    5.8017    1.8170 H   0  0  0  0  0  0  0  0  0  0  0  0
   -2.2190    5.1799    4.1864 H   0  0  0  0  0  0  0  0  0  0  0  0
   -2.6056    2.8444    4.9240 H   0  0  0  0  0  0  0  0  0  0  0  0
   -3.3658    1.1461    3.3316 H   0  0  0  0  0  0  0  0  0  0  0  0
   -6.2798   -0.0163   -1.2021 H   0  0  0  0  0  0  0  0  0  0  0  0
   -8.5996   -0.6362   -0.7209 H   0  0  0  0  0  0  0  0  0  0  0  0
   -9.5581   -0.2816    1.5391 H   0  0  0  0  0  0  0  0  0  0  0  0
   -8.1573    0.7134    3.3266 H   0  0  0  0  0  0  0  0  0  0  0  0
   -5.8436    1.3508    2.8913 H   0  0  0  0  0  0  0  0  0  0  0  0
   -4.5852   -1.6947    0.0912 H   0  0  0  0  0  0  0  0  0  0  0  0
   -0.1401   -4.3669    0.8922 H   0  0  0  0  0  0  0  0  0  0  0  0
    0.4048   -3.5743   -0.5933 H   0  0  0  0  0  0  0  0  0  0  0  0
   -1.3607   -4.5780   -1.8808 H   0  0  0  0  0  0  0  0  0  0  0  0
   -0.5936   -5.8446   -0.9213 H   0  0  0  0  0  0  0  0  0  0  0  0
   -3.0393   -6.0827   -0.7416 H   0  0  0  0  0  0  0  0  0  0  0  0
   -2.3912   -5.5895    0.8224 H   0  0  0  0  0  0  0  0  0  0  0  0
   -3.8259   -3.8924   -1.2570 H   0  0  0  0  0  0  0  0  0  0  0  0
   -4.2933   -4.1903    0.4238 H   0  0  0  0  0  0  0  0  0  0  0  0
    3.8344    3.3271   -1.6708 H   0  0  0  0  0  0  0  0  0  0  0  0
    2.4625    4.6728   -3.1735 H   0  0  0  0  0  0  0  0  0  0  0  0
    0.7910    3.6028   -4.6670 H   0  0  0  0  0  0  0  0  0  0  0  0
    0.5351    1.1365   -4.6573 H   0  0  0  0  0  0  0  0  0  0  0  0
    1.8912   -0.2507   -3.1693 H   0  0  0  0  0  0  0  0  0  0  0  0
    4.1945   -0.5953   -3.9986 H   0  0  0  0  0  0  0  0  0  0  0  0
    5.6590   -2.1541   -5.1554 H   0  0  0  0  0  0  0  0  0  0  0  0
    7.4800   -3.3234   -3.9455 H   0  0  0  0  0  0  0  0  0  0  0  0
    7.8207   -2.8957   -1.5266 H   0  0  0  0  0  0  0  0  0  0  0  0
    6.3766   -1.3375   -0.3237 H   0  0  0  0  0  0  0  0  0  0  0  0
    3.6607    1.8234    1.5071 H   0  0  0  0  0  0  0  0  0  0  0  0
    5.0653    3.3667    2.7695 H   0  0  0  0  0  0  0  0  0  0  0  0
    7.3231    3.9870    1.9464 H   0  0  0  0  0  0  0  0  0  0  0  0
    8.1642    3.0376   -0.1854 H   0  0  0  0  0  0  0  0  0  0  0  0
    6.7792    1.4973   -1.4940 H   0  0  0  0  0  0  0  0  0  0  0  0
    4.6150   -1.5300    1.1203 H   0  0  0  0  0  0  0  0  0  0  0  0
   -0.2413   -2.0525    3.4192 H   0  0  0  0  0  0  0  0  0  0  0  0
    0.1014   -3.6591    2.7717 H   0  0  0  0  0  0  0  0  0  0  0  0
    1.6663   -2.1309    4.8810 H   0  0  0  0  0  0  0  0  0  0  0  0
    0.7991   -3.6577    5.0507 H   0  0  0  0  0  0  0  0  0  0  0  0
    2.3772   -4.7185    3.4021 H   0  0  0  0  0  0  0  0  0  0  0  0
    3.2093   -4.1267    4.8398 H   0  0  0  0  0  0  0  0  0  0  0  0
    4.3118   -3.5391    2.6193 H   0  0  0  0  0  0  0  0  0  0  0  0
    4.0341   -2.1819    3.7212 H   0  0  0  0  0  0  0  0  0  0  0  0
  2  1  2  0  0  0  0
  2  4  1  0  0  0  0
  3  2  1  0  0  0  0
  5  4  1  0  0  0  0
  6  5  2  0  0  0  0
  7  6  1  0  0  0  0
  7 20  1  0  0  0  0
  7 14  1  0  0  0  0
  8  7  1  0  0  0  0
  9 65  1  0  0  0  0
  9  8  2  0  0  0  0
 10  9  1  0  0  0  0
 11 10  2  0  0  0  0
 11 12  1  0  0  0  0
 12 13  2  0  0  0  0
 13  8  1  0  0  0  0
 13 69  1  0  0  0  0
 14 19  1  0  0  0  0
 15 14  2  0  0  0  0
 15 16  1  0  0  0  0
 16 17  2  0  0  0  0
 17 18  1  0  0  0  0
 17 72  1  0  0  0  0
 18 73  1  0  0  0  0
 19 74  1  0  0  0  0
 19 18  2  0  0  0  0
 20 25  2  0  0  0  0
 21 22  2  0  0  0  0
 21 20  1  0  0  0  0
 22 23  1  0  0  0  0
 23 77  1  0  0  0  0
 23 24  2  0  0  0  0
 24 78  1  0  0  0  0
 25 24  1  0  0  0  0
 25 79  1  0  0  0  0
 26  6  1  0  0  0  0
 27 26  2  0  0  0  0
 27 28  1  0  0  0  0
 28 33  2  0  0  0  0
 29 28  1  0  0  0  0
 29 81  1  0  0  0  0
 30 31  1  0  0  0  0
 30 29  1  0  0  0  0
 31 86  1  0  0  0  0
 32 31  1  0  0  0  0
 32 27  1  0  0  0  0
 32 88  1  0  0  0  0
 33  5  1  0  0  0  0
 33 34  1  0  0  0  0
 34 59  2  0  0  0  0
 35 34  1  0  0  0  0
 36 35  1  0  0  0  0
 36  2  1  0  0  0  0
 37 35  2  0  0  0  0
 37 57  1  0  0  0  0
 38 51  1  0  0  0  0
 38 37  1  0  0  0  0
 39 38  1  0  0  0  0
 40 39  1  0  0  0  0
 40 89  1  0  0  0  0
 41 40  2  0  0  0  0
 42 43  2  0  0  0  0
 42 41  1  0  0  0  0
 43 44  1  0  0  0  0
 44 39  2  0  0  0  0
 45 50  1  0  0  0  0
 45 38  1  0  0  0  0
 46 45  2  0  0  0  0
 47 48  2  0  0  0  0
 47 46  1  0  0  0  0
 48 49  1  0  0  0  0
 49 97  1  0  0  0  0
 49 50  2  0  0  0  0
 50 98  1  0  0  0  0
 51 52  1  0  0  0  0
 52 99  1  0  0  0  0
 52 53  2  0  0  0  0
 53100  1  0  0  0  0
 54 53  1  0  0  0  0
 54101  1  0  0  0  0
 55 54  2  0  0  0  0
 56 51  2  0  0  0  0
 56 55  1  0  0  0  0
 57104  1  0  0  0  0
 57 58  2  0  0  0  0
 58 63  1  0  0  0  0
 59 58  1  0  0  0  0
 59 60  1  0  0  0  0
 60105  1  0  0  0  0
 60 61  1  0  0  0  0
 61107  1  0  0  0  0
 61108  1  0  0  0  0
 62 61  1  0  0  0  0
 62110  1  0  0  0  0
 63112  1  0  0  0  0
 63 62  1  0  0  0  0
 64  3  1  0  0  0  0
 66 10  1  0  0  0  0
 67 11  1  0  0  0  0
 68 12  1  0  0  0  0
 70 15  1  0  0  0  0
 71 16  1  0  0  0  0
 75 21  1  0  0  0  0
 76 22  1  0  0  0  0
 80 26  1  0  0  0  0
 82 29  1  0  0  0  0
 83 30  1  0  0  0  0
 84 30  1  0  0  0  0
 85 31  1  0  0  0  0
 87 32  1  0  0  0  0
 90 41  1  0  0  0  0
 91 42  1  0  0  0  0
 92 43  1  0  0  0  0
 93 44  1  0  0  0  0
 94 46  1  0  0  0  0
 95 47  1  0  0  0  0
 96 48  1  0  0  0  0
102 55  1  0  0  0  0
103 56  1  0  0  0  0
106 60  1  0  0  0  0
109 62  1  0  0  0  0
111 63  1  0  0  0  0
M  END
$$$$
