O=P1(O)OC2=C(C3=C(OC(F)(F)F)C=CC=C3)C=C4C(C=CC=C4)=C2C5=C(O1)C(C6=CC=CC=C6OC(F)(F)F)=CC7=C5C=CC=C7
 OpenBabel09032010383D

 66 72  0  0  0  0  0  0  0  0999 V2000
   -0.5807    0.3718    3.0308 O   0  0  0  0  0  0  0  0  0  0  0  0
    0.0989   -0.1519    1.8048 P   0  0  0  0  0  0  0  0  0  0  0  0
    1.2643   -1.1877    2.2015 O   0  0  0  0  0  0  0  0  0  0  0  0
    0.8603    0.9619    0.9262 O   0  0  0  0  0  0  0  0  0  0  0  0
    1.4114    0.5868   -0.2785 C   0  0  0  0  0  0  0  0  0  0  0  0
    2.8134    0.6521   -0.3717 C   0  0  0  0  0  0  0  0  0  0  0  0
    3.6558    1.1280    0.7426 C   0  0  0  0  0  0  0  0  0  0  0  0
    4.4817    0.2617    1.4893 C   0  0  0  0  0  0  0  0  0  0  0  0
    4.4874   -1.0611    1.1284 O   0  0  0  0  0  0  0  0  0  0  0  0
    4.5248   -1.9851    2.2050 C   0  0  0  0  0  0  0  0  0  0  0  0
    4.1196   -3.1945    1.7604 F   0  0  0  0  0  0  0  0  0  0  0  0
    3.7076   -1.6107    3.2181 F   0  0  0  0  0  0  0  0  0  0  0  0
    5.7843   -2.1150    2.6764 F   0  0  0  0  0  0  0  0  0  0  0  0
    5.2888    0.7706    2.5151 C   0  0  0  0  0  0  0  0  0  0  0  0
    5.2521    2.1288    2.8333 C   0  0  0  0  0  0  0  0  0  0  0  0
    4.4233    2.9890    2.1217 C   0  0  0  0  0  0  0  0  0  0  0  0
    3.6368    2.4933    1.0822 C   0  0  0  0  0  0  0  0  0  0  0  0
    3.4043    0.2762   -1.5779 C   0  0  0  0  0  0  0  0  0  0  0  0
    2.6389   -0.1767   -2.6559 C   0  0  0  0  0  0  0  0  0  0  0  0
    1.2224   -0.2250   -2.5556 C   0  0  0  0  0  0  0  0  0  0  0  0
    0.5358   -0.7798   -3.6659 C   0  0  0  0  0  0  0  0  0  0  0  0
    1.1942   -1.1989   -4.8254 C   0  0  0  0  0  0  0  0  0  0  0  0
    2.5731   -1.0957   -4.9109 C   0  0  0  0  0  0  0  0  0  0  0  0
    3.2904   -0.5939   -3.8292 C   0  0  0  0  0  0  0  0  0  0  0  0
    0.5628    0.2256   -1.3543 C   0  0  0  0  0  0  0  0  0  0  0  0
   -0.8767    0.3380   -1.2190 C   0  0  0  0  0  0  0  0  0  0  0  0
   -1.5481   -0.3089   -0.1503 C   0  0  0  0  0  0  0  0  0  0  0  0
   -0.8133   -1.0010    0.7860 O   0  0  0  0  0  0  0  0  0  0  0  0
   -2.9470   -0.3615   -0.0279 C   0  0  0  0  0  0  0  0  0  0  0  0
   -3.6201   -1.1041    1.0520 C   0  0  0  0  0  0  0  0  0  0  0  0
   -4.0302   -2.4289    0.8159 C   0  0  0  0  0  0  0  0  0  0  0  0
   -4.6911   -3.1598    1.8007 C   0  0  0  0  0  0  0  0  0  0  0  0
   -4.9550   -2.5739    3.0337 C   0  0  0  0  0  0  0  0  0  0  0  0
   -4.5565   -1.2590    3.2883 C   0  0  0  0  0  0  0  0  0  0  0  0
   -3.8841   -0.5174    2.3097 C   0  0  0  0  0  0  0  0  0  0  0  0
   -3.4546    0.7744    2.4607 O   0  0  0  0  0  0  0  0  0  0  0  0
   -3.5640    1.3775    3.7368 C   0  0  0  0  0  0  0  0  0  0  0  0
   -2.9805    0.6422    4.7065 F   0  0  0  0  0  0  0  0  0  0  0  0
   -2.9728    2.5929    3.7023 F   0  0  0  0  0  0  0  0  0  0  0  0
   -4.8665    1.5658    4.0545 F   0  0  0  0  0  0  0  0  0  0  0  0
   -3.7170    0.3080   -0.9806 C   0  0  0  0  0  0  0  0  0  0  0  0
   -3.1240    1.0368   -2.0139 C   0  0  0  0  0  0  0  0  0  0  0  0
   -1.7091    1.0784   -2.1368 C   0  0  0  0  0  0  0  0  0  0  0  0
   -1.1966    1.9165   -3.1605 C   0  0  0  0  0  0  0  0  0  0  0  0
   -2.0221    2.6150   -4.0463 C   0  0  0  0  0  0  0  0  0  0  0  0
   -3.3989    2.5165   -3.9291 C   0  0  0  0  0  0  0  0  0  0  0  0
   -3.9451    1.7373   -2.9139 C   0  0  0  0  0  0  0  0  0  0  0  0
    1.6220   -0.9734    3.0841 H   0  0  0  0  0  0  0  0  0  0  0  0
    5.9702    0.1359    3.0747 H   0  0  0  0  0  0  0  0  0  0  0  0
    5.8777    2.5167    3.6336 H   0  0  0  0  0  0  0  0  0  0  0  0
    4.3903    4.0474    2.3676 H   0  0  0  0  0  0  0  0  0  0  0  0
    3.0010    3.1821    0.5278 H   0  0  0  0  0  0  0  0  0  0  0  0
    4.4894    0.3204   -1.6655 H   0  0  0  0  0  0  0  0  0  0  0  0
   -0.5448   -0.9089   -3.6379 H   0  0  0  0  0  0  0  0  0  0  0  0
    0.6239   -1.6107   -5.6540 H   0  0  0  0  0  0  0  0  0  0  0  0
    3.0930   -1.4204   -5.8079 H   0  0  0  0  0  0  0  0  0  0  0  0
    4.3752   -0.5437   -3.9054 H   0  0  0  0  0  0  0  0  0  0  0  0
   -3.8292   -2.8966   -0.1462 H   0  0  0  0  0  0  0  0  0  0  0  0
   -4.9983   -4.1834    1.6035 H   0  0  0  0  0  0  0  0  0  0  0  0
   -5.4727   -3.1408    3.8038 H   0  0  0  0  0  0  0  0  0  0  0  0
   -4.7914   -0.8484    4.2661 H   0  0  0  0  0  0  0  0  0  0  0  0
   -4.8027    0.2774   -0.8919 H   0  0  0  0  0  0  0  0  0  0  0  0
   -0.1228    2.0510   -3.2778 H   0  0  0  0  0  0  0  0  0  0  0  0
   -1.5822    3.2386   -4.8202 H   0  0  0  0  0  0  0  0  0  0  0  0
   -4.0480    3.0570   -4.6123 H   0  0  0  0  0  0  0  0  0  0  0  0
   -5.0289    1.6922   -2.8216 H   0  0  0  0  0  0  0  0  0  0  0  0
  2  3  1  0  0  0  0
  2  1  2  0  0  0  0
  3 48  1  0  0  0  0
  4  2  1  0  0  0  0
  5  4  1  0  0  0  0
  6  5  1  0  0  0  0
  6  7  1  0  0  0  0
  7 17  2  0  0  0  0
  7  8  1  0  0  0  0
  8 14  2  0  0  0  0
  9  8  1  0  0  0  0
  9 10  1  0  0  0  0
 10 13  1  0  0  0  0
 10 12  1  0  0  0  0
 11 10  1  0  0  0  0
 14 15  1  0  0  0  0
 14 49  1  0  0  0  0
 15 50  1  0  0  0  0
 16 51  1  0  0  0  0
 16 15  2  0  0  0  0
 17 16  1  0  0  0  0
 18  6  2  0  0  0  0
 19 20  1  0  0  0  0
 19 18  1  0  0  0  0
 20 25  1  0  0  0  0
 21 54  1  0  0  0  0
 21 20  2  0  0  0  0
 22 21  1  0  0  0  0
 23 22  2  0  0  0  0
 23 24  1  0  0  0  0
 24 19  2  0  0  0  0
 25 26  1  0  0  0  0
 25  5  2  0  0  0  0
 26 27  2  0  0  0  0
 27 29  1  0  0  0  0
 27 28  1  0  0  0  0
 28  2  1  0  0  0  0
 29 30  1  0  0  0  0
 30 35  1  0  0  0  0
 31 30  2  0  0  0  0
 31 32  1  0  0  0  0
 32 33  2  0  0  0  0
 33 34  1  0  0  0  0
 33 60  1  0  0  0  0
 34 61  1  0  0  0  0
 35 36  1  0  0  0  0
 35 34  2  0  0  0  0
 36 37  1  0  0  0  0
 37 40  1  0  0  0  0
 37 38  1  0  0  0  0
 39 37  1  0  0  0  0
 41 62  1  0  0  0  0
 41 29  2  0  0  0  0
 42 41  1  0  0  0  0
 43 42  1  0  0  0  0
 43 26  1  0  0  0  0
 44 43  2  0  0  0  0
 45 46  2  0  0  0  0
 45 44  1  0  0  0  0
 46 47  1  0  0  0  0
 47 66  1  0  0  0  0
 47 42  2  0  0  0  0
 52 17  1  0  0  0  0
 53 18  1  0  0  0  0
 55 22  1  0  0  0  0
 56 23  1  0  0  0  0
 57 24  1  0  0  0  0
 58 31  1  0  0  0  0
 59 32  1  0  0  0  0
 63 44  1  0  0  0  0
 64 45  1  0  0  0  0
 65 46  1  0  0  0  0
M  END
$$$$
