O=P1(O)OC2=C(C3=CC(C4=CC=C(OC)C=C4)=CC(C5=CC=C(OC)C=C5)=C3)C=C6C(C=CC=C6)=C2C7=C(O1)C(C8=CC(C9=CC=C(OC)C=C9)=CC(C%10=CC=C(OC)C=C%10)=C8)=CC%11=C7C=CC=C%11
 OpenBabel09032010383D

114124  0  0  0  0  0  0  0  0999 V2000
    0.6973    0.5635    1.4977 O   0  0  0  0  0  0  0  0  0  0  0  0
    0.3069   -0.1063    0.2164 P   0  0  0  0  0  0  0  0  0  0  0  0
    0.0012    0.9867   -0.9235 O   0  0  0  0  0  0  0  0  0  0  0  0
   -1.0249   -1.0088    0.2935 O   0  0  0  0  0  0  0  0  0  0  0  0
   -1.3034   -1.9344   -0.6912 C   0  0  0  0  0  0  0  0  0  0  0  0
   -2.5300   -1.7732   -1.3641 C   0  0  0  0  0  0  0  0  0  0  0  0
   -3.4729   -0.6858   -1.0570 C   0  0  0  0  0  0  0  0  0  0  0  0
   -4.6625   -0.9506   -0.3593 C   0  0  0  0  0  0  0  0  0  0  0  0
   -5.5960    0.0605   -0.0793 C   0  0  0  0  0  0  0  0  0  0  0  0
   -6.8507   -0.2425    0.6308 C   0  0  0  0  0  0  0  0  0  0  0  0
   -6.8449   -0.9103    1.8658 C   0  0  0  0  0  0  0  0  0  0  0  0
   -8.0382   -1.2091    2.5388 C   0  0  0  0  0  0  0  0  0  0  0  0
   -9.2653   -0.8456    1.9869 C   0  0  0  0  0  0  0  0  0  0  0  0
  -10.4973   -1.0790    2.5323 O   0  0  0  0  0  0  0  0  0  0  0  0
  -10.5274   -1.7383    3.7920 C   0  0  0  0  0  0  0  0  0  0  0  0
   -9.2855   -0.1802    0.7610 C   0  0  0  0  0  0  0  0  0  0  0  0
   -8.0943    0.1193    0.0909 C   0  0  0  0  0  0  0  0  0  0  0  0
   -5.3026    1.3663   -0.5087 C   0  0  0  0  0  0  0  0  0  0  0  0
   -4.1224    1.6734   -1.2086 C   0  0  0  0  0  0  0  0  0  0  0  0
   -3.8364    3.0502   -1.6479 C   0  0  0  0  0  0  0  0  0  0  0  0
   -3.5089    3.3328   -2.9839 C   0  0  0  0  0  0  0  0  0  0  0  0
   -3.2405    4.6414   -3.4084 C   0  0  0  0  0  0  0  0  0  0  0  0
   -3.2938    5.6969   -2.5008 C   0  0  0  0  0  0  0  0  0  0  0  0
   -3.0559    7.0137   -2.7810 O   0  0  0  0  0  0  0  0  0  0  0  0
   -2.8313    7.3511   -4.1444 C   0  0  0  0  0  0  0  0  0  0  0  0
   -3.6105    5.4298   -1.1686 C   0  0  0  0  0  0  0  0  0  0  0  0
   -3.8804    4.1238   -0.7460 C   0  0  0  0  0  0  0  0  0  0  0  0
   -3.2252    0.6279   -1.4801 C   0  0  0  0  0  0  0  0  0  0  0  0
   -2.8688   -2.7057   -2.3474 C   0  0  0  0  0  0  0  0  0  0  0  0
   -2.0128   -3.7553   -2.6854 C   0  0  0  0  0  0  0  0  0  0  0  0
   -0.7872   -3.9268   -1.9903 C   0  0  0  0  0  0  0  0  0  0  0  0
    0.0585   -4.9633   -2.4652 C   0  0  0  0  0  0  0  0  0  0  0  0
   -0.3065   -5.8164   -3.5103 C   0  0  0  0  0  0  0  0  0  0  0  0
   -1.5311   -5.6527   -4.1357 C   0  0  0  0  0  0  0  0  0  0  0  0
   -2.3759   -4.6245   -3.7285 C   0  0  0  0  0  0  0  0  0  0  0  0
   -0.4357   -3.0444   -0.9053 C   0  0  0  0  0  0  0  0  0  0  0  0
    0.7226   -3.2673   -0.0602 C   0  0  0  0  0  0  0  0  0  0  0  0
    1.6729   -2.2392    0.1051 C   0  0  0  0  0  0  0  0  0  0  0  0
    1.4352   -1.0168   -0.4782 O   0  0  0  0  0  0  0  0  0  0  0  0
    2.8840   -2.3815    0.8044 C   0  0  0  0  0  0  0  0  0  0  0  0
    3.8177   -1.2558    0.9262 C   0  0  0  0  0  0  0  0  0  0  0  0
    4.5467   -0.8050   -0.1824 C   0  0  0  0  0  0  0  0  0  0  0  0
    5.3257    0.3612   -0.1264 C   0  0  0  0  0  0  0  0  0  0  0  0
    5.9934    0.8744   -1.3327 C   0  0  0  0  0  0  0  0  0  0  0  0
    5.2692    1.0638   -2.5223 C   0  0  0  0  0  0  0  0  0  0  0  0
    5.8804    1.5646   -3.6768 C   0  0  0  0  0  0  0  0  0  0  0  0
    7.2342    1.8880   -3.6636 C   0  0  0  0  0  0  0  0  0  0  0  0
    7.9484    2.3872   -4.7155 O   0  0  0  0  0  0  0  0  0  0  0  0
    7.2390    2.6108   -5.9273 C   0  0  0  0  0  0  0  0  0  0  0  0
    7.9673    1.7026   -2.4902 C   0  0  0  0  0  0  0  0  0  0  0  0
    7.3553    1.2028   -1.3357 C   0  0  0  0  0  0  0  0  0  0  0  0
    5.3853    1.0609    1.0910 C   0  0  0  0  0  0  0  0  0  0  0  0
    4.6725    0.6348    2.2245 C   0  0  0  0  0  0  0  0  0  0  0  0
    4.6589    1.4313    3.4609 C   0  0  0  0  0  0  0  0  0  0  0  0
    3.4414    1.8298    4.0351 C   0  0  0  0  0  0  0  0  0  0  0  0
    3.4147    2.5884    5.2067 C   0  0  0  0  0  0  0  0  0  0  0  0
    4.6007    2.9703    5.8318 C   0  0  0  0  0  0  0  0  0  0  0  0
    4.4284    3.7102    6.9672 O   0  0  0  0  0  0  0  0  0  0  0  0
    5.6063    4.1411    7.6366 C   0  0  0  0  0  0  0  0  0  0  0  0
    5.8195    2.5847    5.2750 C   0  0  0  0  0  0  0  0  0  0  0  0
    5.8458    1.8227    4.0985 C   0  0  0  0  0  0  0  0  0  0  0  0
    3.9051   -0.5359    2.1242 C   0  0  0  0  0  0  0  0  0  0  0  0
    3.1528   -3.6082    1.4056 C   0  0  0  0  0  0  0  0  0  0  0  0
    2.2310   -4.6585    1.3448 C   0  0  0  0  0  0  0  0  0  0  0  0
    1.0062   -4.4994    0.6373 C   0  0  0  0  0  0  0  0  0  0  0  0
    0.0938   -5.5823    0.7122 C   0  0  0  0  0  0  0  0  0  0  0  0
    0.3915   -6.7718    1.3826 C   0  0  0  0  0  0  0  0  0  0  0  0
    1.6117   -6.9150    2.0232 C   0  0  0  0  0  0  0  0  0  0  0  0
    2.5217   -5.8617    2.0096 C   0  0  0  0  0  0  0  0  0  0  0  0
    0.4663    1.8169   -0.7095 H   0  0  0  0  0  0  0  0  0  0  0  0
   -4.8697   -1.9715   -0.0402 H   0  0  0  0  0  0  0  0  0  0  0  0
   -5.9004   -1.1980    2.3245 H   0  0  0  0  0  0  0  0  0  0  0  0
   -7.9702   -1.7250    3.4907 H   0  0  0  0  0  0  0  0  0  0  0  0
  -11.5750   -1.8405    4.0909 H   0  0  0  0  0  0  0  0  0  0  0  0
  -10.1018   -2.7447    3.7207 H   0  0  0  0  0  0  0  0  0  0  0  0
  -10.0183   -1.1464    4.5599 H   0  0  0  0  0  0  0  0  0  0  0  0
  -10.2373    0.1069    0.3203 H   0  0  0  0  0  0  0  0  0  0  0  0
   -8.1488    0.6296   -0.8687 H   0  0  0  0  0  0  0  0  0  0  0  0
   -6.0137    2.1641   -0.2961 H   0  0  0  0  0  0  0  0  0  0  0  0
   -3.4716    2.5288   -3.7168 H   0  0  0  0  0  0  0  0  0  0  0  0
   -2.9948    4.7963   -4.4534 H   0  0  0  0  0  0  0  0  0  0  0  0
   -3.6906    7.0796   -4.7666 H   0  0  0  0  0  0  0  0  0  0  0  0
   -1.9112    6.8891   -4.5169 H   0  0  0  0  0  0  0  0  0  0  0  0
   -2.7065    8.4366   -4.2040 H   0  0  0  0  0  0  0  0  0  0  0  0
   -3.6507    6.2456   -0.4509 H   0  0  0  0  0  0  0  0  0  0  0  0
   -4.1157    3.9509    0.3022 H   0  0  0  0  0  0  0  0  0  0  0  0
   -2.3075    0.8410   -2.0264 H   0  0  0  0  0  0  0  0  0  0  0  0
   -3.8132   -2.5867   -2.8785 H   0  0  0  0  0  0  0  0  0  0  0  0
    1.0440   -5.1157   -2.0281 H   0  0  0  0  0  0  0  0  0  0  0  0
    0.3741   -6.6002   -3.8327 H   0  0  0  0  0  0  0  0  0  0  0  0
   -1.8235   -6.3098   -4.9498 H   0  0  0  0  0  0  0  0  0  0  0  0
   -3.3244   -4.4971   -4.2478 H   0  0  0  0  0  0  0  0  0  0  0  0
    4.4735   -1.3556   -1.1197 H   0  0  0  0  0  0  0  0  0  0  0  0
    4.2061    0.8308   -2.5566 H   0  0  0  0  0  0  0  0  0  0  0  0
    5.2675    1.6908   -4.5626 H   0  0  0  0  0  0  0  0  0  0  0  0
    7.9459    3.0147   -6.6585 H   0  0  0  0  0  0  0  0  0  0  0  0
    6.8422    1.6735   -6.3312 H   0  0  0  0  0  0  0  0  0  0  0  0
    6.4440    3.3511   -5.7894 H   0  0  0  0  0  0  0  0  0  0  0  0
    9.0261    1.9500   -2.4729 H   0  0  0  0  0  0  0  0  0  0  0  0
    7.9566    1.0646   -0.4398 H   0  0  0  0  0  0  0  0  0  0  0  0
    5.9495    1.9915    1.1406 H   0  0  0  0  0  0  0  0  0  0  0  0
    2.4961    1.5591    3.5649 H   0  0  0  0  0  0  0  0  0  0  0  0
    2.4591    2.8842    5.6322 H   0  0  0  0  0  0  0  0  0  0  0  0
    6.1928    3.2875    7.9923 H   0  0  0  0  0  0  0  0  0  0  0  0
    5.2999    4.7219    8.5120 H   0  0  0  0  0  0  0  0  0  0  0  0
    6.2076    4.7956    6.9968 H   0  0  0  0  0  0  0  0  0  0  0  0
    6.7676    2.8560    5.7285 H   0  0  0  0  0  0  0  0  0  0  0  0
    6.8085    1.5259    3.6873 H   0  0  0  0  0  0  0  0  0  0  0  0
    3.3184   -0.8644    2.9820 H   0  0  0  0  0  0  0  0  0  0  0  0
    4.0870   -3.7328    1.9520 H   0  0  0  0  0  0  0  0  0  0  0  0
   -0.8889   -5.5095    0.2494 H   0  0  0  0  0  0  0  0  0  0  0  0
   -0.3365   -7.5789    1.4047 H   0  0  0  0  0  0  0  0  0  0  0  0
    1.8498   -7.8361    2.5481 H   0  0  0  0  0  0  0  0  0  0  0  0
    3.4642   -5.9850    2.5404 H   0  0  0  0  0  0  0  0  0  0  0  0
  2  4  1  0  0  0  0
  2  1  2  0  0  0  0
  3 70  1  0  0  0  0
  3  2  1  0  0  0  0
  5  4  1  0  0  0  0
  6  7  1  0  0  0  0
  6  5  2  0  0  0  0
  7  8  2  0  0  0  0
  8  9  1  0  0  0  0
  8 71  1  0  0  0  0
  9 10  1  0  0  0  0
 10 11  1  0  0  0  0
 11 72  1  0  0  0  0
 11 12  2  0  0  0  0
 12 73  1  0  0  0  0
 13 14  1  0  0  0  0
 13 12  1  0  0  0  0
 14 15  1  0  0  0  0
 15 74  1  0  0  0  0
 15 76  1  0  0  0  0
 16 13  2  0  0  0  0
 17 10  2  0  0  0  0
 17 16  1  0  0  0  0
 18 79  1  0  0  0  0
 18  9  2  0  0  0  0
 19 18  1  0  0  0  0
 20 19  1  0  0  0  0
 20 27  2  0  0  0  0
 21 20  1  0  0  0  0
 22 21  2  0  0  0  0
 22 23  1  0  0  0  0
 23 26  2  0  0  0  0
 24 23  1  0  0  0  0
 25 24  1  0  0  0  0
 26 27  1  0  0  0  0
 26 85  1  0  0  0  0
 27 86  1  0  0  0  0
 28 19  2  0  0  0  0
 28  7  1  0  0  0  0
 29  6  1  0  0  0  0
 30 29  2  0  0  0  0
 30 31  1  0  0  0  0
 31 36  2  0  0  0  0
 32 89  1  0  0  0  0
 32 31  1  0  0  0  0
 33 32  2  0  0  0  0
 34 35  2  0  0  0  0
 34 33  1  0  0  0  0
 35 30  1  0  0  0  0
 36  5  1  0  0  0  0
 36 37  1  0  0  0  0
 37 38  2  0  0  0  0
 37 65  1  0  0  0  0
 38 40  1  0  0  0  0
 39 38  1  0  0  0  0
 39  2  1  0  0  0  0
 40 41  1  0  0  0  0
 40 63  2  0  0  0  0
 41 62  2  0  0  0  0
 42 43  2  0  0  0  0
 42 41  1  0  0  0  0
 43 52  1  0  0  0  0
 44 43  1  0  0  0  0
 45 44  2  0  0  0  0
 46 47  2  0  0  0  0
 46 45  1  0  0  0  0
 47 50  1  0  0  0  0
 48 47  1  0  0  0  0
 49 98  1  0  0  0  0
 49 48  1  0  0  0  0
 50 99  1  0  0  0  0
 50 51  2  0  0  0  0
 51 44  1  0  0  0  0
 51100  1  0  0  0  0
 52101  1  0  0  0  0
 52 53  2  0  0  0  0
 53 54  1  0  0  0  0
 54 55  2  0  0  0  0
 54 61  1  0  0  0  0
 55 56  1  0  0  0  0
 56103  1  0  0  0  0
 56 57  2  0  0  0  0
 57 58  1  0  0  0  0
 58 59  1  0  0  0  0
 59104  1  0  0  0  0
 59105  1  0  0  0  0
 60107  1  0  0  0  0
 60 57  1  0  0  0  0
 61 60  2  0  0  0  0
 62 53  1  0  0  0  0
 62109  1  0  0  0  0
 63110  1  0  0  0  0
 64 63  1  0  0  0  0
 64 69  2  0  0  0  0
 65 66  2  0  0  0  0
 65 64  1  0  0  0  0
 66 67  1  0  0  0  0
 67112  1  0  0  0  0
 67 68  2  0  0  0  0
 68113  1  0  0  0  0
 69 68  1  0  0  0  0
 69114  1  0  0  0  0
 75 15  1  0  0  0  0
 77 16  1  0  0  0  0
 78 17  1  0  0  0  0
 80 21  1  0  0  0  0
 81 22  1  0  0  0  0
 82 25  1  0  0  0  0
 83 25  1  0  0  0  0
 84 25  1  0  0  0  0
 87 28  1  0  0  0  0
 88 29  1  0  0  0  0
 90 33  1  0  0  0  0
 91 34  1  0  0  0  0
 92 35  1  0  0  0  0
 93 42  1  0  0  0  0
 94 45  1  0  0  0  0
 95 46  1  0  0  0  0
 96 49  1  0  0  0  0
 97 49  1  0  0  0  0
102 55  1  0  0  0  0
106 59  1  0  0  0  0
108 61  1  0  0  0  0
111 66  1  0  0  0  0
M  END
$$$$
