O=P1(O)OC2=C([Si](C3=CC=CC=C3)(C4=CC=CC=C4)C5=CC=CC=C5)C=C6C(C=CC=C6)=C2C7=C(O1)C([Si](C8=CC=CC=C8)(C9=CC=CC=C9)C%10=CC=CC=C%10)=CC%11=C7C=CC=C%11
 OpenBabel09032010383D

104114  0  0  0  0  0  0  0  0999 V2000
   -1.4339    1.8315   -1.8531 O   0  0  0  0  0  0  0  0  0  0  0  0
   -0.5061    1.4866   -0.7278 P   0  0  0  0  0  0  0  0  0  0  0  0
   -0.1511    2.7324    0.2181 O   0  0  0  0  0  0  0  0  0  0  0  0
    0.9390    1.0004   -1.1907 O   0  0  0  0  0  0  0  0  0  0  0  0
    1.4235   -0.2852   -1.2142 C   0  0  0  0  0  0  0  0  0  0  0  0
    2.8475   -0.3260   -1.2534 C   0  0  0  0  0  0  0  0  0  0  0  0
    3.9208    1.2086   -1.0060 Si  0  0  0  0  0  0  0  0  0  0  0  0
    3.2908    2.0167    0.5746 C   0  0  0  0  0  0  0  0  0  0  0  0
    3.1844    3.4132    0.7084 C   0  0  0  0  0  0  0  0  0  0  0  0
    2.6955    3.9929    1.8843 C   0  0  0  0  0  0  0  0  0  0  0  0
    2.3022    3.1922    2.9522 C   0  0  0  0  0  0  0  0  0  0  0  0
    2.4005    1.8092    2.8493 C   0  0  0  0  0  0  0  0  0  0  0  0
    2.8848    1.2269    1.6743 C   0  0  0  0  0  0  0  0  0  0  0  0
    5.7103    0.7076   -0.7766 C   0  0  0  0  0  0  0  0  0  0  0  0
    6.2866    0.5499    0.4983 C   0  0  0  0  0  0  0  0  0  0  0  0
    7.6211    0.1581    0.6465 C   0  0  0  0  0  0  0  0  0  0  0  0
    8.4090   -0.0845   -0.4740 C   0  0  0  0  0  0  0  0  0  0  0  0
    7.8663    0.0678   -1.7450 C   0  0  0  0  0  0  0  0  0  0  0  0
    6.5335    0.4592   -1.8962 C   0  0  0  0  0  0  0  0  0  0  0  0
    3.8280    2.3730   -2.4532 C   0  0  0  0  0  0  0  0  0  0  0  0
    2.8989    2.2120   -3.4982 C   0  0  0  0  0  0  0  0  0  0  0  0
    2.8518    3.1054   -4.5740 C   0  0  0  0  0  0  0  0  0  0  0  0
    3.7379    4.1752   -4.6373 C   0  0  0  0  0  0  0  0  0  0  0  0
    4.6754    4.3521   -3.6265 C   0  0  0  0  0  0  0  0  0  0  0  0
    4.7219    3.4617   -2.5500 C   0  0  0  0  0  0  0  0  0  0  0  0
    3.4619   -1.5736   -1.3965 C   0  0  0  0  0  0  0  0  0  0  0  0
    2.7249   -2.7532   -1.3823 C   0  0  0  0  0  0  0  0  0  0  0  0
    1.3111   -2.7149   -1.2588 C   0  0  0  0  0  0  0  0  0  0  0  0
    0.6984   -3.9867   -1.0697 C   0  0  0  0  0  0  0  0  0  0  0  0
    1.4002   -5.1967   -1.1108 C   0  0  0  0  0  0  0  0  0  0  0  0
    2.7667   -5.1897   -1.3168 C   0  0  0  0  0  0  0  0  0  0  0  0
    3.4252   -3.9723   -1.4389 C   0  0  0  0  0  0  0  0  0  0  0  0
    0.5921   -1.4542   -1.2641 C   0  0  0  0  0  0  0  0  0  0  0  0
   -0.8766   -1.4473   -1.2614 C   0  0  0  0  0  0  0  0  0  0  0  0
   -1.6115   -0.7189   -0.2873 C   0  0  0  0  0  0  0  0  0  0  0  0
   -1.0020    0.3557    0.3152 O   0  0  0  0  0  0  0  0  0  0  0  0
   -2.9584   -0.9715    0.0599 C   0  0  0  0  0  0  0  0  0  0  0  0
   -3.8015   -0.1977    1.5476 Si  0  0  0  0  0  0  0  0  0  0  0  0
   -3.1099   -0.9205    3.1394 C   0  0  0  0  0  0  0  0  0  0  0  0
   -1.8504   -1.5454    3.1991 C   0  0  0  0  0  0  0  0  0  0  0  0
   -1.3616   -2.0804    4.3963 C   0  0  0  0  0  0  0  0  0  0  0  0
   -2.1187   -2.0047    5.5614 C   0  0  0  0  0  0  0  0  0  0  0  0
   -3.3653   -1.3896    5.5330 C   0  0  0  0  0  0  0  0  0  0  0  0
   -3.8541   -0.8519    4.3384 C   0  0  0  0  0  0  0  0  0  0  0  0
   -5.6356   -0.6095    1.5264 C   0  0  0  0  0  0  0  0  0  0  0  0
   -6.0841   -1.9024    1.8756 C   0  0  0  0  0  0  0  0  0  0  0  0
   -7.4437   -2.2267    1.8708 C   0  0  0  0  0  0  0  0  0  0  0  0
   -8.3876   -1.2692    1.5156 C   0  0  0  0  0  0  0  0  0  0  0  0
   -7.9726    0.0126    1.1684 C   0  0  0  0  0  0  0  0  0  0  0  0
   -6.6128    0.3405    1.1748 C   0  0  0  0  0  0  0  0  0  0  0  0
   -3.5718    1.6488    1.5428 C   0  0  0  0  0  0  0  0  0  0  0  0
   -3.2012    2.3590    2.7018 C   0  0  0  0  0  0  0  0  0  0  0  0
   -3.0227    3.7460    2.6797 C   0  0  0  0  0  0  0  0  0  0  0  0
   -3.2083    4.4560    1.4987 C   0  0  0  0  0  0  0  0  0  0  0  0
   -3.5739    3.7807    0.3398 C   0  0  0  0  0  0  0  0  0  0  0  0
   -3.7559    2.3947    0.3612 C   0  0  0  0  0  0  0  0  0  0  0  0
   -3.6524   -1.8629   -0.7699 C   0  0  0  0  0  0  0  0  0  0  0  0
   -3.0540   -2.4540   -1.8890 C   0  0  0  0  0  0  0  0  0  0  0  0
   -1.6773   -2.2427   -2.1537 C   0  0  0  0  0  0  0  0  0  0  0  0
   -1.1681   -2.8239   -3.3438 C   0  0  0  0  0  0  0  0  0  0  0  0
   -1.9497   -3.6165   -4.1883 C   0  0  0  0  0  0  0  0  0  0  0  0
   -3.2813   -3.8429   -3.8808 C   0  0  0  0  0  0  0  0  0  0  0  0
   -3.8297   -3.2600   -2.7413 C   0  0  0  0  0  0  0  0  0  0  0  0
    0.5276    2.5161    0.8828 H   0  0  0  0  0  0  0  0  0  0  0  0
    3.4645    4.0829   -0.1032 H   0  0  0  0  0  0  0  0  0  0  0  0
    2.6168    5.0754    1.9590 H   0  0  0  0  0  0  0  0  0  0  0  0
    1.9181    3.6464    3.8622 H   0  0  0  0  0  0  0  0  0  0  0  0
    2.0964    1.1805    3.6834 H   0  0  0  0  0  0  0  0  0  0  0  0
    2.9380    0.1379    1.6326 H   0  0  0  0  0  0  0  0  0  0  0  0
    5.7120    0.7299    1.4053 H   0  0  0  0  0  0  0  0  0  0  0  0
    8.0449    0.0439    1.6414 H   0  0  0  0  0  0  0  0  0  0  0  0
    9.4450   -0.3889   -0.3560 H   0  0  0  0  0  0  0  0  0  0  0  0
    8.4784   -0.1158   -2.6240 H   0  0  0  0  0  0  0  0  0  0  0  0
    6.1486    0.5671   -2.9111 H   0  0  0  0  0  0  0  0  0  0  0  0
    2.1867    1.3886   -3.5037 H   0  0  0  0  0  0  0  0  0  0  0  0
    2.1168    2.9617   -5.3625 H   0  0  0  0  0  0  0  0  0  0  0  0
    3.6983    4.8673   -5.4738 H   0  0  0  0  0  0  0  0  0  0  0  0
    5.3736    5.1836   -3.6728 H   0  0  0  0  0  0  0  0  0  0  0  0
    5.4769    3.6340   -1.7819 H   0  0  0  0  0  0  0  0  0  0  0  0
    4.5483   -1.6470   -1.4565 H   0  0  0  0  0  0  0  0  0  0  0  0
   -0.3675   -4.0622   -0.8637 H   0  0  0  0  0  0  0  0  0  0  0  0
    0.8698   -6.1352   -0.9751 H   0  0  0  0  0  0  0  0  0  0  0  0
    3.3241   -6.1209   -1.3531 H   0  0  0  0  0  0  0  0  0  0  0  0
    4.5079   -3.9825   -1.5564 H   0  0  0  0  0  0  0  0  0  0  0  0
   -1.2205   -1.6361    2.3173 H   0  0  0  0  0  0  0  0  0  0  0  0
   -0.3855   -2.5592    4.4128 H   0  0  0  0  0  0  0  0  0  0  0  0
   -1.7395   -2.4253    6.4893 H   0  0  0  0  0  0  0  0  0  0  0  0
   -3.9626   -1.3287    6.4399 H   0  0  0  0  0  0  0  0  0  0  0  0
   -4.8358   -0.3768    4.3591 H   0  0  0  0  0  0  0  0  0  0  0  0
   -5.3742   -2.6801    2.1599 H   0  0  0  0  0  0  0  0  0  0  0  0
   -7.7630   -3.2285    2.1464 H   0  0  0  0  0  0  0  0  0  0  0  0
   -9.4447   -1.5202    1.5107 H   0  0  0  0  0  0  0  0  0  0  0  0
   -8.7072    0.7652    0.8930 H   0  0  0  0  0  0  0  0  0  0  0  0
   -6.3410    1.3593    0.9035 H   0  0  0  0  0  0  0  0  0  0  0  0
   -3.0333    1.8472    3.6481 H   0  0  0  0  0  0  0  0  0  0  0  0
   -2.7302    4.2683    3.5867 H   0  0  0  0  0  0  0  0  0  0  0  0
   -3.0566    5.5314    1.4763 H   0  0  0  0  0  0  0  0  0  0  0  0
   -3.6990    4.3258   -0.5927 H   0  0  0  0  0  0  0  0  0  0  0  0
   -4.0239    1.9060   -0.5768 H   0  0  0  0  0  0  0  0  0  0  0  0
   -4.7050   -2.0778   -0.5846 H   0  0  0  0  0  0  0  0  0  0  0  0
   -0.1341   -2.6517   -3.6383 H   0  0  0  0  0  0  0  0  0  0  0  0
   -1.5124   -4.0471   -5.0847 H   0  0  0  0  0  0  0  0  0  0  0  0
   -3.8987   -4.4555   -4.5319 H   0  0  0  0  0  0  0  0  0  0  0  0
   -4.8842   -3.4300   -2.5293 H   0  0  0  0  0  0  0  0  0  0  0  0
  1  2  2  0  0  0  0
  2  3  1  0  0  0  0
  2 36  1  0  0  0  0
  3 64  1  0  0  0  0
  4  2  1  0  0  0  0
  5  4  1  0  0  0  0
  6  5  1  0  0  0  0
  6  7  1  0  0  0  0
  7 14  1  0  0  0  0
  7  8  1  0  0  0  0
  8  9  2  0  0  0  0
  8 13  1  0  0  0  0
  9 10  1  0  0  0  0
 10 66  1  0  0  0  0
 10 11  2  0  0  0  0
 11 67  1  0  0  0  0
 12 11  1  0  0  0  0
 12 68  1  0  0  0  0
 13 12  2  0  0  0  0
 14 15  2  0  0  0  0
 15 16  1  0  0  0  0
 15 70  1  0  0  0  0
 16 71  1  0  0  0  0
 17 72  1  0  0  0  0
 17 16  2  0  0  0  0
 18 17  1  0  0  0  0
 19 18  2  0  0  0  0
 19 14  1  0  0  0  0
 20  7  1  0  0  0  0
 21 20  2  0  0  0  0
 22 21  1  0  0  0  0
 23 22  2  0  0  0  0
 23 24  1  0  0  0  0
 24 25  2  0  0  0  0
 25 20  1  0  0  0  0
 25 79  1  0  0  0  0
 26 27  1  0  0  0  0
 26  6  2  0  0  0  0
 27 28  1  0  0  0  0
 28 29  2  0  0  0  0
 29 81  1  0  0  0  0
 30 29  1  0  0  0  0
 30 82  1  0  0  0  0
 31 30  2  0  0  0  0
 32 27  2  0  0  0  0
 32 31  1  0  0  0  0
 33 34  1  0  0  0  0
 33 28  1  0  0  0  0
 33  5  2  0  0  0  0
 34 35  2  0  0  0  0
 35 37  1  0  0  0  0
 35 36  1  0  0  0  0
 37 38  1  0  0  0  0
 38 39  1  0  0  0  0
 39 40  2  0  0  0  0
 39 44  1  0  0  0  0
 40 41  1  0  0  0  0
 41 86  1  0  0  0  0
 41 42  2  0  0  0  0
 42 87  1  0  0  0  0
 43 42  1  0  0  0  0
 43 88  1  0  0  0  0
 44 89  1  0  0  0  0
 44 43  2  0  0  0  0
 45 38  1  0  0  0  0
 45 46  2  0  0  0  0
 46 90  1  0  0  0  0
 47 46  1  0  0  0  0
 47 91  1  0  0  0  0
 48 47  2  0  0  0  0
 49 50  2  0  0  0  0
 49 48  1  0  0  0  0
 50 45  1  0  0  0  0
 51 38  1  0  0  0  0
 51 52  2  0  0  0  0
 52 95  1  0  0  0  0
 53 52  1  0  0  0  0
 53 96  1  0  0  0  0
 54 53  2  0  0  0  0
 55 56  2  0  0  0  0
 55 54  1  0  0  0  0
 56 51  1  0  0  0  0
 57100  1  0  0  0  0
 57 37  2  0  0  0  0
 58 57  1  0  0  0  0
 59 58  1  0  0  0  0
 59 34  1  0  0  0  0
 60 59  2  0  0  0  0
 61 62  2  0  0  0  0
 61 60  1  0  0  0  0
 62 63  1  0  0  0  0
 63104  1  0  0  0  0
 63 58  2  0  0  0  0
 65  9  1  0  0  0  0
 69 13  1  0  0  0  0
 73 18  1  0  0  0  0
 74 19  1  0  0  0  0
 75 21  1  0  0  0  0
 76 22  1  0  0  0  0
 77 23  1  0  0  0  0
 78 24  1  0  0  0  0
 80 26  1  0  0  0  0
 83 31  1  0  0  0  0
 84 32  1  0  0  0  0
 85 40  1  0  0  0  0
 92 48  1  0  0  0  0
 93 49  1  0  0  0  0
 94 50  1  0  0  0  0
 97 54  1  0  0  0  0
 98 55  1  0  0  0  0
 99 56  1  0  0  0  0
101 60  1  0  0  0  0
102 61  1  0  0  0  0
103 62  1  0  0  0  0
M  END
$$$$
