O=P1(O)OC2=C(CC3=CC=C(C(F)(F)F)C=C3C(F)(F)F)C=C4C(C=CC=C4)=C2C5=C(O1)C(CC6=C(C(F)(F)F)C=C(C(F)(F)F)C=C6)=CC7=C5C=CC=C7
 OpenBabel09032010373D

 76 82  0  0  0  0  0  0  0  0999 V2000
    0.1328    2.3700    1.6656 O   0  0  0  0  0  0  0  0  0  0  0  0
   -0.5750    2.1364    0.3695 P   0  0  0  0  0  0  0  0  0  0  0  0
   -1.4957    3.3995   -0.0146 O   0  0  0  0  0  0  0  0  0  0  0  0
    0.3618    1.9518   -0.9265 O   0  0  0  0  0  0  0  0  0  0  0  0
    0.8817    0.7002   -1.1626 C   0  0  0  0  0  0  0  0  0  0  0  0
    2.2718    0.5559   -1.0169 C   0  0  0  0  0  0  0  0  0  0  0  0
    3.1241    1.7311   -0.5705 C   0  0  0  0  0  0  0  0  0  0  0  0
    4.4524    1.3812    0.0853 C   0  0  0  0  0  0  0  0  0  0  0  0
    5.6174    1.4121   -0.7051 C   0  0  0  0  0  0  0  0  0  0  0  0
    6.8593    1.0687   -0.1705 C   0  0  0  0  0  0  0  0  0  0  0  0
    6.9742    0.6925    1.1716 C   0  0  0  0  0  0  0  0  0  0  0  0
    8.3151    0.2980    1.7421 C   0  0  0  0  0  0  0  0  0  0  0  0
    8.3782    0.4204    3.0969 F   0  0  0  0  0  0  0  0  0  0  0  0
    9.3419    1.0474    1.2525 F   0  0  0  0  0  0  0  0  0  0  0  0
    8.6320   -0.9969    1.4669 F   0  0  0  0  0  0  0  0  0  0  0  0
    5.8161    0.6589    1.9647 C   0  0  0  0  0  0  0  0  0  0  0  0
    4.5493    0.9981    1.4436 C   0  0  0  0  0  0  0  0  0  0  0  0
    3.3483    0.9867    2.3745 C   0  0  0  0  0  0  0  0  0  0  0  0
    2.9254    2.2454    2.6652 F   0  0  0  0  0  0  0  0  0  0  0  0
    3.6174    0.4026    3.5785 F   0  0  0  0  0  0  0  0  0  0  0  0
    2.2809    0.3108    1.8766 F   0  0  0  0  0  0  0  0  0  0  0  0
    2.8323   -0.6798   -1.3488 C   0  0  0  0  0  0  0  0  0  0  0  0
    2.0366   -1.7676   -1.7201 C   0  0  0  0  0  0  0  0  0  0  0  0
    0.6289   -1.6199   -1.8240 C   0  0  0  0  0  0  0  0  0  0  0  0
   -0.1034   -2.8049   -2.0951 C   0  0  0  0  0  0  0  0  0  0  0  0
    0.5134   -4.0379   -2.3244 C   0  0  0  0  0  0  0  0  0  0  0  0
    1.8935   -4.1374   -2.2735 C   0  0  0  0  0  0  0  0  0  0  0  0
    2.6483   -3.0097   -1.9647 C   0  0  0  0  0  0  0  0  0  0  0  0
    0.0167   -0.3314   -1.6106 C   0  0  0  0  0  0  0  0  0  0  0  0
   -1.3926   -0.0670   -1.8381 C   0  0  0  0  0  0  0  0  0  0  0  0
   -2.1891    0.5095   -0.8172 C   0  0  0  0  0  0  0  0  0  0  0  0
   -1.6104    0.9060    0.3644 O   0  0  0  0  0  0  0  0  0  0  0  0
   -3.5877    0.6258   -0.8932 C   0  0  0  0  0  0  0  0  0  0  0  0
   -4.4211    1.1934    0.2419 C   0  0  0  0  0  0  0  0  0  0  0  0
   -4.2621    0.4950    1.5858 C   0  0  0  0  0  0  0  0  0  0  0  0
   -4.0518    1.2107    2.7888 C   0  0  0  0  0  0  0  0  0  0  0  0
   -3.9881    2.7230    2.8233 C   0  0  0  0  0  0  0  0  0  0  0  0
   -3.8543    3.2419    4.0751 F   0  0  0  0  0  0  0  0  0  0  0  0
   -5.1041    3.3047    2.3020 F   0  0  0  0  0  0  0  0  0  0  0  0
   -2.9395    3.2267    2.1042 F   0  0  0  0  0  0  0  0  0  0  0  0
   -3.8919    0.4934    3.9934 C   0  0  0  0  0  0  0  0  0  0  0  0
   -3.9435   -0.9090    4.0271 C   0  0  0  0  0  0  0  0  0  0  0  0
   -3.7725   -1.6598    5.3255 C   0  0  0  0  0  0  0  0  0  0  0  0
   -3.1940   -2.8823    5.1657 F   0  0  0  0  0  0  0  0  0  0  0  0
   -2.9999   -0.9963    6.2299 F   0  0  0  0  0  0  0  0  0  0  0  0
   -4.9627   -1.8871    5.9479 F   0  0  0  0  0  0  0  0  0  0  0  0
   -4.1920   -1.6003    2.8377 C   0  0  0  0  0  0  0  0  0  0  0  0
   -4.3523   -0.9087    1.6368 C   0  0  0  0  0  0  0  0  0  0  0  0
   -4.2203    0.2345   -2.0737 C   0  0  0  0  0  0  0  0  0  0  0  0
   -3.4884   -0.2476   -3.1616 C   0  0  0  0  0  0  0  0  0  0  0  0
   -2.0772   -0.3865   -3.0677 C   0  0  0  0  0  0  0  0  0  0  0  0
   -1.4103   -0.7974   -4.2504 C   0  0  0  0  0  0  0  0  0  0  0  0
   -2.0916   -1.1137   -5.4288 C   0  0  0  0  0  0  0  0  0  0  0  0
   -3.4721   -1.0127   -5.4749 C   0  0  0  0  0  0  0  0  0  0  0  0
   -4.1647   -0.5756   -4.3496 C   0  0  0  0  0  0  0  0  0  0  0  0
   -1.8875    3.7624    0.8058 H   0  0  0  0  0  0  0  0  0  0  0  0
    3.3088    2.3622   -1.4501 H   0  0  0  0  0  0  0  0  0  0  0  0
    2.5692    2.3637    0.1319 H   0  0  0  0  0  0  0  0  0  0  0  0
    5.5606    1.6983   -1.7551 H   0  0  0  0  0  0  0  0  0  0  0  0
    7.7417    1.0973   -0.8091 H   0  0  0  0  0  0  0  0  0  0  0  0
    5.9021    0.3665    3.0136 H   0  0  0  0  0  0  0  0  0  0  0  0
    3.9091   -0.8217   -1.2824 H   0  0  0  0  0  0  0  0  0  0  0  0
   -1.1915   -2.7873   -2.1216 H   0  0  0  0  0  0  0  0  0  0  0  0
   -0.0907   -4.9156   -2.5376 H   0  0  0  0  0  0  0  0  0  0  0  0
    2.3832   -5.0907   -2.4528 H   0  0  0  0  0  0  0  0  0  0  0  0
    3.7296   -3.1148   -1.9002 H   0  0  0  0  0  0  0  0  0  0  0  0
   -5.4885    1.1519   -0.0122 H   0  0  0  0  0  0  0  0  0  0  0  0
   -4.1746    2.2575    0.3045 H   0  0  0  0  0  0  0  0  0  0  0  0
   -3.7158    1.0365    4.9245 H   0  0  0  0  0  0  0  0  0  0  0  0
   -4.2511   -2.6883    2.8369 H   0  0  0  0  0  0  0  0  0  0  0  0
   -4.5288   -1.4817    0.7272 H   0  0  0  0  0  0  0  0  0  0  0  0
   -5.3019    0.3335   -2.1569 H   0  0  0  0  0  0  0  0  0  0  0  0
   -0.3240   -0.8657   -4.2764 H   0  0  0  0  0  0  0  0  0  0  0  0
   -1.5362   -1.4324   -6.3071 H   0  0  0  0  0  0  0  0  0  0  0  0
   -4.0084   -1.2561   -6.3882 H   0  0  0  0  0  0  0  0  0  0  0  0
   -5.2469   -0.4784   -4.4151 H   0  0  0  0  0  0  0  0  0  0  0  0
  2  1  2  0  0  0  0
  3  2  1  0  0  0  0
  3 56  1  0  0  0  0
  4  2  1  0  0  0  0
  5  6  1  0  0  0  0
  5  4  1  0  0  0  0
  6  7  1  0  0  0  0
  7  8  1  0  0  0  0
  7 58  1  0  0  0  0
  8 17  2  0  0  0  0
  9 10  2  0  0  0  0
  9  8  1  0  0  0  0
 10 11  1  0  0  0  0
 11 12  1  0  0  0  0
 11 16  2  0  0  0  0
 12 13  1  0  0  0  0
 14 12  1  0  0  0  0
 15 12  1  0  0  0  0
 16 61  1  0  0  0  0
 17 16  1  0  0  0  0
 17 18  1  0  0  0  0
 18 19  1  0  0  0  0
 18 20  1  0  0  0  0
 21 18  1  0  0  0  0
 22 62  1  0  0  0  0
 22  6  2  0  0  0  0
 23 22  1  0  0  0  0
 24 23  1  0  0  0  0
 24 29  1  0  0  0  0
 25 24  2  0  0  0  0
 26 27  2  0  0  0  0
 26 25  1  0  0  0  0
 27 28  1  0  0  0  0
 28 66  1  0  0  0  0
 28 23  2  0  0  0  0
 29  5  2  0  0  0  0
 30 29  1  0  0  0  0
 30 31  2  0  0  0  0
 31 32  1  0  0  0  0
 32  2  1  0  0  0  0
 33 31  1  0  0  0  0
 33 34  1  0  0  0  0
 34 68  1  0  0  0  0
 34 35  1  0  0  0  0
 35 48  2  0  0  0  0
 35 36  1  0  0  0  0
 36 37  1  0  0  0  0
 36 41  2  0  0  0  0
 37 38  1  0  0  0  0
 39 37  1  0  0  0  0
 40 37  1  0  0  0  0
 41 42  1  0  0  0  0
 41 69  1  0  0  0  0
 42 43  1  0  0  0  0
 43 46  1  0  0  0  0
 43 45  1  0  0  0  0
 44 43  1  0  0  0  0
 47 42  2  0  0  0  0
 48 47  1  0  0  0  0
 49 33  2  0  0  0  0
 50 51  1  0  0  0  0
 50 49  1  0  0  0  0
 51 30  1  0  0  0  0
 52 51  2  0  0  0  0
 53 52  1  0  0  0  0
 54 53  2  0  0  0  0
 54 55  1  0  0  0  0
 55 50  2  0  0  0  0
 57  7  1  0  0  0  0
 59  9  1  0  0  0  0
 60 10  1  0  0  0  0
 63 25  1  0  0  0  0
 64 26  1  0  0  0  0
 65 27  1  0  0  0  0
 67 34  1  0  0  0  0
 70 47  1  0  0  0  0
 71 48  1  0  0  0  0
 72 49  1  0  0  0  0
 73 52  1  0  0  0  0
 74 53  1  0  0  0  0
 75 54  1  0  0  0  0
 76 55  1  0  0  0  0
M  END
$$$$
