O=P1(O)OC2=C(C3=C(OC)C=CC=C3OC)C=C4C(C=CC=C4)=C2C5=C(O1)[C@@]([C@@]6=C(OC)C=CC=C6OC)=CC7=C5C=CC=C7
 OpenBabel09032010373D

 74 80  0  0  0  0  0  0  0  0999 V2000
    1.1851    2.7200    0.7191 O   0  0  0  0  0  0  0  0  0  0  0  0
    0.3977    1.7834   -0.1440 P   0  0  0  0  0  0  0  0  0  0  0  0
   -0.2584    2.5174   -1.4166 O   0  0  0  0  0  0  0  0  0  0  0  0
    1.2096    0.5725   -0.8238 O   0  0  0  0  0  0  0  0  0  0  0  0
    1.6069   -0.4471    0.0103 C   0  0  0  0  0  0  0  0  0  0  0  0
    2.9836   -0.5654    0.2682 C   0  0  0  0  0  0  0  0  0  0  0  0
    3.9833    0.3375   -0.3425 C   0  0  0  0  0  0  0  0  0  0  0  0
    4.6824    1.2838    0.4368 C   0  0  0  0  0  0  0  0  0  0  0  0
    4.4340    1.3145    1.7888 O   0  0  0  0  0  0  0  0  0  0  0  0
    4.2225    2.6303    2.2981 C   0  0  0  0  0  0  0  0  0  0  0  0
    5.6459    2.1212   -0.1398 C   0  0  0  0  0  0  0  0  0  0  0  0
    5.9115    2.0492   -1.5054 C   0  0  0  0  0  0  0  0  0  0  0  0
    5.2195    1.1383   -2.2989 C   0  0  0  0  0  0  0  0  0  0  0  0
    4.2550    0.3001   -1.7268 C   0  0  0  0  0  0  0  0  0  0  0  0
    3.6110   -0.6370   -2.5008 O   0  0  0  0  0  0  0  0  0  0  0  0
    2.9022   -0.0444   -3.5891 C   0  0  0  0  0  0  0  0  0  0  0  0
    3.3954   -1.5797    1.1352 C   0  0  0  0  0  0  0  0  0  0  0  0
    2.4757   -2.4305    1.7555 C   0  0  0  0  0  0  0  0  0  0  0  0
    1.0895   -2.3090    1.4715 C   0  0  0  0  0  0  0  0  0  0  0  0
    0.2208   -3.1534    2.2086 C   0  0  0  0  0  0  0  0  0  0  0  0
    0.6907   -4.1019    3.1213 C   0  0  0  0  0  0  0  0  0  0  0  0
    2.0525   -4.2287    3.3442 C   0  0  0  0  0  0  0  0  0  0  0  0
    2.9380   -3.3930    2.6695 C   0  0  0  0  0  0  0  0  0  0  0  0
    0.6271   -1.3339    0.5152 C   0  0  0  0  0  0  0  0  0  0  0  0
   -0.7357   -1.2517    0.0278 C   0  0  0  0  0  0  0  0  0  0  0  0
   -1.4557   -0.0274    0.0676 C   0  0  0  0  0  0  0  0  0  0  0  0
   -0.8709    1.1102    0.5851 O   0  0  0  0  0  0  0  0  0  0  0  0
   -2.8042    0.0895   -0.3166 C   0  0  0  0  0  0  0  0  0  0  0  0
   -3.5331    1.3738   -0.2637 C   0  0  0  0  0  0  0  0  0  0  0  0
   -3.5086    2.2537   -1.3734 C   0  0  0  0  0  0  0  0  0  0  0  0
   -2.7505    1.8470   -2.4502 O   0  0  0  0  0  0  0  0  0  0  0  0
   -2.9005    2.5799   -3.6629 C   0  0  0  0  0  0  0  0  0  0  0  0
   -4.1956    3.4692   -1.3169 C   0  0  0  0  0  0  0  0  0  0  0  0
   -4.9214    3.8121   -0.1769 C   0  0  0  0  0  0  0  0  0  0  0  0
   -4.9621    2.9507    0.9184 C   0  0  0  0  0  0  0  0  0  0  0  0
   -4.2675    1.7381    0.8880 C   0  0  0  0  0  0  0  0  0  0  0  0
   -4.2794    0.8287    1.9178 O   0  0  0  0  0  0  0  0  0  0  0  0
   -4.6037    1.3279    3.2092 C   0  0  0  0  0  0  0  0  0  0  0  0
   -3.4641   -1.0500   -0.7790 C   0  0  0  0  0  0  0  0  0  0  0  0
   -2.8032   -2.2718   -0.9048 C   0  0  0  0  0  0  0  0  0  0  0  0
   -1.4360   -2.3835   -0.5363 C   0  0  0  0  0  0  0  0  0  0  0  0
   -0.8231   -3.6340   -0.8118 C   0  0  0  0  0  0  0  0  0  0  0  0
   -1.5259   -4.7224   -1.3379 C   0  0  0  0  0  0  0  0  0  0  0  0
   -2.8732   -4.5961   -1.6314 C   0  0  0  0  0  0  0  0  0  0  0  0
   -3.5047   -3.3741   -1.4239 C   0  0  0  0  0  0  0  0  0  0  0  0
   -0.9449    1.9618   -1.8359 H   0  0  0  0  0  0  0  0  0  0  0  0
    3.6924    3.2756    1.5895 H   0  0  0  0  0  0  0  0  0  0  0  0
    5.1791    3.0809    2.5807 H   0  0  0  0  0  0  0  0  0  0  0  0
    3.6106    2.5450    3.2011 H   0  0  0  0  0  0  0  0  0  0  0  0
    6.2095    2.8192    0.4711 H   0  0  0  0  0  0  0  0  0  0  0  0
    6.6673    2.6929   -1.9470 H   0  0  0  0  0  0  0  0  0  0  0  0
    5.4534    1.0688   -3.3567 H   0  0  0  0  0  0  0  0  0  0  0  0
    2.4198    0.8990   -3.3088 H   0  0  0  0  0  0  0  0  0  0  0  0
    2.1201   -0.7443   -3.8984 H   0  0  0  0  0  0  0  0  0  0  0  0
    3.5730    0.1089   -4.4402 H   0  0  0  0  0  0  0  0  0  0  0  0
    4.4586   -1.6792    1.3511 H   0  0  0  0  0  0  0  0  0  0  0  0
   -0.8583   -3.0720    2.0884 H   0  0  0  0  0  0  0  0  0  0  0  0
   -0.0138   -4.7316    3.6577 H   0  0  0  0  0  0  0  0  0  0  0  0
    2.4269   -4.9620    4.0529 H   0  0  0  0  0  0  0  0  0  0  0  0
    4.0027   -3.4887    2.8748 H   0  0  0  0  0  0  0  0  0  0  0  0
   -3.9482    2.6181   -3.9789 H   0  0  0  0  0  0  0  0  0  0  0  0
   -2.3365    2.0550   -4.4398 H   0  0  0  0  0  0  0  0  0  0  0  0
   -2.4765    3.5844   -3.5657 H   0  0  0  0  0  0  0  0  0  0  0  0
   -4.1771    4.1780   -2.1380 H   0  0  0  0  0  0  0  0  0  0  0  0
   -5.4569    4.7579   -0.1406 H   0  0  0  0  0  0  0  0  0  0  0  0
   -5.5505    3.2474    1.7801 H   0  0  0  0  0  0  0  0  0  0  0  0
   -5.6757    1.5346    3.2875 H   0  0  0  0  0  0  0  0  0  0  0  0
   -4.0106    2.2140    3.4597 H   0  0  0  0  0  0  0  0  0  0  0  0
   -4.3620    0.5485    3.9384 H   0  0  0  0  0  0  0  0  0  0  0  0
   -4.5105   -0.9652   -1.0690 H   0  0  0  0  0  0  0  0  0  0  0  0
    0.2401   -3.7801   -0.6284 H   0  0  0  0  0  0  0  0  0  0  0  0
   -1.0097   -5.6614   -1.5193 H   0  0  0  0  0  0  0  0  0  0  0  0
   -3.4277   -5.4366   -2.0391 H   0  0  0  0  0  0  0  0  0  0  0  0
   -4.5571   -3.2832   -1.6869 H   0  0  0  0  0  0  0  0  0  0  0  0
  2 27  1  0  0  0  0
  2  1  2  0  0  0  0
  3  2  1  0  0  0  0
  4  2  1  0  0  0  0
  4  5  1  0  0  0  0
  5  6  2  0  0  0  0
  5 24  1  0  0  0  0
  6 17  1  0  0  0  0
  7  6  1  0  0  0  0
  7  8  2  0  0  0  0
  8  9  1  0  0  0  0
  9 10  1  0  0  0  0
 10 48  1  0  0  0  0
 10 49  1  0  0  0  0
 11  8  1  0  0  0  0
 11 50  1  0  0  0  0
 12 11  2  0  0  0  0
 13 14  2  0  0  0  0
 13 12  1  0  0  0  0
 14  7  1  0  0  0  0
 15 14  1  0  0  0  0
 16 53  1  0  0  0  0
 16 15  1  0  0  0  0
 17 56  1  0  0  0  0
 17 18  2  0  0  0  0
 18 23  1  0  0  0  0
 19 18  1  0  0  0  0
 19 20  1  0  0  0  0
 20 21  2  0  0  0  0
 21 22  1  0  0  0  0
 21 58  1  0  0  0  0
 22 59  1  0  0  0  0
 23 60  1  0  0  0  0
 23 22  2  0  0  0  0
 24 19  2  0  0  0  0
 25 26  1  0  0  0  0
 25 24  1  0  0  0  0
 26 27  1  0  0  0  0
 28 29  1  0  0  0  0
 28 26  2  0  0  0  0
 29 36  2  0  0  0  0
 30 33  2  0  0  0  0
 30 29  1  0  0  0  0
 31 30  1  0  0  0  0
 32 63  1  0  0  0  0
 32 31  1  0  0  0  0
 33 34  1  0  0  0  0
 34 65  1  0  0  0  0
 34 35  2  0  0  0  0
 35 66  1  0  0  0  0
 36 35  1  0  0  0  0
 36 37  1  0  0  0  0
 37 38  1  0  0  0  0
 38 67  1  0  0  0  0
 38 68  1  0  0  0  0
 38 69  1  0  0  0  0
 39 28  1  0  0  0  0
 40 39  2  0  0  0  0
 40 41  1  0  0  0  0
 41 25  2  0  0  0  0
 42 71  1  0  0  0  0
 42 41  1  0  0  0  0
 43 42  2  0  0  0  0
 44 45  2  0  0  0  0
 44 43  1  0  0  0  0
 45 40  1  0  0  0  0
 46  3  1  0  0  0  0
 47 10  1  0  0  0  0
 51 12  1  0  0  0  0
 52 13  1  0  0  0  0
 54 16  1  0  0  0  0
 55 16  1  0  0  0  0
 57 20  1  0  0  0  0
 61 32  1  0  0  0  0
 62 32  1  0  0  0  0
 64 33  1  0  0  0  0
 70 39  1  0  0  0  0
 72 43  1  0  0  0  0
 73 44  1  0  0  0  0
 74 45  1  0  0  0  0
M  END
$$$$
