O=P1(O)OC2=C(C3=C(C)C=C(C)C=C3C)C=C4C(C=CC=C4)=C2C5=C(O1)[C@@]([C@@]6=C(C)C=C(C)C=C6C)=CC7=C5C=CC=C7
 OpenBabel09032010383D

 76 82  0  0  0  0  0  0  0  0999 V2000
   -0.5612    2.2352   -1.7487 O   0  0  0  0  0  0  0  0  0  0  0  0
    0.0045    1.5587   -0.5397 P   0  0  0  0  0  0  0  0  0  0  0  0
    0.7961    2.6025    0.3943 O   0  0  0  0  0  0  0  0  0  0  0  0
   -1.0446    0.8725    0.4704 O   0  0  0  0  0  0  0  0  0  0  0  0
   -1.5493   -0.3594    0.1176 C   0  0  0  0  0  0  0  0  0  0  0  0
   -2.9152   -0.4191   -0.2100 C   0  0  0  0  0  0  0  0  0  0  0  0
   -3.7884    0.7726   -0.1822 C   0  0  0  0  0  0  0  0  0  0  0  0
   -4.3166    1.2493    1.0443 C   0  0  0  0  0  0  0  0  0  0  0  0
   -3.9927    0.5826    2.3576 C   0  0  0  0  0  0  0  0  0  0  0  0
   -5.1459    2.3838    1.0566 C   0  0  0  0  0  0  0  0  0  0  0  0
   -5.4733    3.0527   -0.1247 C   0  0  0  0  0  0  0  0  0  0  0  0
   -6.3919    4.2379   -0.0991 C   0  0  0  0  0  0  0  0  0  0  0  0
   -4.9776    2.5669   -1.3365 C   0  0  0  0  0  0  0  0  0  0  0  0
   -4.1279    1.4479   -1.3806 C   0  0  0  0  0  0  0  0  0  0  0  0
   -3.6450    0.9759   -2.7290 C   0  0  0  0  0  0  0  0  0  0  0  0
   -3.4523   -1.6589   -0.5619 C   0  0  0  0  0  0  0  0  0  0  0  0
   -2.6560   -2.8046   -0.6272 C   0  0  0  0  0  0  0  0  0  0  0  0
   -1.2790   -2.7362   -0.2849 C   0  0  0  0  0  0  0  0  0  0  0  0
   -0.5288   -3.9257   -0.4701 C   0  0  0  0  0  0  0  0  0  0  0  0
   -1.1088   -5.1223   -0.9001 C   0  0  0  0  0  0  0  0  0  0  0  0
   -2.4646   -5.1694   -1.1798 C   0  0  0  0  0  0  0  0  0  0  0  0
   -3.2313   -4.0151   -1.0499 C   0  0  0  0  0  0  0  0  0  0  0  0
   -0.7030   -1.4945    0.1716 C   0  0  0  0  0  0  0  0  0  0  0  0
    0.6471   -1.3724    0.6871 C   0  0  0  0  0  0  0  0  0  0  0  0
    1.5365   -0.4080    0.1511 C   0  0  0  0  0  0  0  0  0  0  0  0
    1.1081    0.4308   -0.8537 O   0  0  0  0  0  0  0  0  0  0  0  0
    2.8933   -0.3080    0.5133 C   0  0  0  0  0  0  0  0  0  0  0  0
    3.7972    0.6991   -0.0841 C   0  0  0  0  0  0  0  0  0  0  0  0
    4.3172    0.5223   -1.3909 C   0  0  0  0  0  0  0  0  0  0  0  0
    3.9755   -0.6852   -2.2278 C   0  0  0  0  0  0  0  0  0  0  0  0
    5.1497    1.5059   -1.9524 C   0  0  0  0  0  0  0  0  0  0  0  0
    5.5162    2.6433   -1.2299 C   0  0  0  0  0  0  0  0  0  0  0  0
    6.3921    3.6902   -1.8521 C   0  0  0  0  0  0  0  0  0  0  0  0
    5.0152    2.8142    0.0621 C   0  0  0  0  0  0  0  0  0  0  0  0
    4.1575    1.8634    0.6422 C   0  0  0  0  0  0  0  0  0  0  0  0
    3.6917    2.1012    2.0578 C   0  0  0  0  0  0  0  0  0  0  0  0
    3.3827   -1.1914    1.4768 C   0  0  0  0  0  0  0  0  0  0  0  0
    2.5464   -2.1148    2.1077 C   0  0  0  0  0  0  0  0  0  0  0  0
    1.1751   -2.2002    1.7454 C   0  0  0  0  0  0  0  0  0  0  0  0
    0.3825   -3.0913    2.5140 C   0  0  0  0  0  0  0  0  0  0  0  0
    0.9166   -3.8972    3.5233 C   0  0  0  0  0  0  0  0  0  0  0  0
    2.2683   -3.8281    3.8171 C   0  0  0  0  0  0  0  0  0  0  0  0
    3.0759   -2.9364    3.1176 C   0  0  0  0  0  0  0  0  0  0  0  0
    1.3370    3.1950   -0.1590 H   0  0  0  0  0  0  0  0  0  0  0  0
   -2.9485    0.7642    2.6296 H   0  0  0  0  0  0  0  0  0  0  0  0
   -4.1781   -0.4948    2.3041 H   0  0  0  0  0  0  0  0  0  0  0  0
   -4.6196    0.9715    3.1675 H   0  0  0  0  0  0  0  0  0  0  0  0
   -5.5427    2.7494    2.0020 H   0  0  0  0  0  0  0  0  0  0  0  0
   -7.4307    3.9084   -0.1985 H   0  0  0  0  0  0  0  0  0  0  0  0
   -6.1601    4.9299   -0.9157 H   0  0  0  0  0  0  0  0  0  0  0  0
   -6.2852    4.7952    0.8375 H   0  0  0  0  0  0  0  0  0  0  0  0
   -5.2479    3.0707   -2.2630 H   0  0  0  0  0  0  0  0  0  0  0  0
   -4.2612    0.1394   -3.0733 H   0  0  0  0  0  0  0  0  0  0  0  0
   -2.5980    0.6620   -2.6961 H   0  0  0  0  0  0  0  0  0  0  0  0
   -3.7079    1.7770   -3.4736 H   0  0  0  0  0  0  0  0  0  0  0  0
   -4.5107   -1.7162   -0.8148 H   0  0  0  0  0  0  0  0  0  0  0  0
    0.5449   -3.9340   -0.2907 H   0  0  0  0  0  0  0  0  0  0  0  0
   -0.4929   -6.0096   -1.0197 H   0  0  0  0  0  0  0  0  0  0  0  0
   -2.9234   -6.0952   -1.5156 H   0  0  0  0  0  0  0  0  0  0  0  0
   -4.2900   -4.0650   -1.2982 H   0  0  0  0  0  0  0  0  0  0  0  0
    4.0514   -1.6061   -1.6410 H   0  0  0  0  0  0  0  0  0  0  0  0
    2.9652   -0.5914   -2.6365 H   0  0  0  0  0  0  0  0  0  0  0  0
    4.6701   -0.7929   -3.0682 H   0  0  0  0  0  0  0  0  0  0  0  0
    5.5247    1.3761   -2.9665 H   0  0  0  0  0  0  0  0  0  0  0  0
    7.0913    3.2415   -2.5656 H   0  0  0  0  0  0  0  0  0  0  0  0
    6.9903    4.2025   -1.0912 H   0  0  0  0  0  0  0  0  0  0  0  0
    5.7775    4.4289   -2.3756 H   0  0  0  0  0  0  0  0  0  0  0  0
    5.2971    3.7002    0.6290 H   0  0  0  0  0  0  0  0  0  0  0  0
    3.7638    3.1618    2.3230 H   0  0  0  0  0  0  0  0  0  0  0  0
    4.3136    1.5313    2.7552 H   0  0  0  0  0  0  0  0  0  0  0  0
    2.6444    1.8172    2.1936 H   0  0  0  0  0  0  0  0  0  0  0  0
    4.4338   -1.1292    1.7574 H   0  0  0  0  0  0  0  0  0  0  0  0
   -0.6904   -3.1626    2.3437 H   0  0  0  0  0  0  0  0  0  0  0  0
    0.2681   -4.5699    4.0782 H   0  0  0  0  0  0  0  0  0  0  0  0
    2.6916   -4.4502    4.6007 H   0  0  0  0  0  0  0  0  0  0  0  0
    4.1303   -2.8761    3.3814 H   0  0  0  0  0  0  0  0  0  0  0  0
  1  2  2  0  0  0  0
  2  3  1  0  0  0  0
  2  4  1  0  0  0  0
  5 23  1  0  0  0  0
  5  4  1  0  0  0  0
  6  7  1  0  0  0  0
  6  5  2  0  0  0  0
  7  8  2  0  0  0  0
  8 10  1  0  0  0  0
  8  9  1  0  0  0  0
  9 45  1  0  0  0  0
  9 47  1  0  0  0  0
 10 48  1  0  0  0  0
 11 12  1  0  0  0  0
 11 10  2  0  0  0  0
 12 51  1  0  0  0  0
 13 11  1  0  0  0  0
 14 13  2  0  0  0  0
 14  7  1  0  0  0  0
 15 54  1  0  0  0  0
 15 14  1  0  0  0  0
 16  6  1  0  0  0  0
 17 16  2  0  0  0  0
 17 18  1  0  0  0  0
 18 23  2  0  0  0  0
 19 57  1  0  0  0  0
 19 18  1  0  0  0  0
 20 19  2  0  0  0  0
 21 22  2  0  0  0  0
 21 20  1  0  0  0  0
 22 17  1  0  0  0  0
 23 24  1  0  0  0  0
 24 39  2  0  0  0  0
 25 27  2  0  0  0  0
 25 24  1  0  0  0  0
 26  2  1  0  0  0  0
 26 25  1  0  0  0  0
 27 37  1  0  0  0  0
 28 27  1  0  0  0  0
 28 35  2  0  0  0  0
 29 28  1  0  0  0  0
 30 61  1  0  0  0  0
 30 29  1  0  0  0  0
 31 29  2  0  0  0  0
 31 32  1  0  0  0  0
 32 34  2  0  0  0  0
 33 32  1  0  0  0  0
 33 66  1  0  0  0  0
 34 68  1  0  0  0  0
 34 35  1  0  0  0  0
 35 36  1  0  0  0  0
 36 71  1  0  0  0  0
 36 69  1  0  0  0  0
 36 70  1  0  0  0  0
 37 72  1  0  0  0  0
 37 38  2  0  0  0  0
 38 43  1  0  0  0  0
 39 38  1  0  0  0  0
 39 40  1  0  0  0  0
 40 41  2  0  0  0  0
 41 42  1  0  0  0  0
 41 74  1  0  0  0  0
 42 75  1  0  0  0  0
 43 76  1  0  0  0  0
 43 42  2  0  0  0  0
 44  3  1  0  0  0  0
 46  9  1  0  0  0  0
 49 12  1  0  0  0  0
 50 12  1  0  0  0  0
 52 13  1  0  0  0  0
 53 15  1  0  0  0  0
 55 15  1  0  0  0  0
 56 16  1  0  0  0  0
 58 20  1  0  0  0  0
 59 21  1  0  0  0  0
 60 22  1  0  0  0  0
 62 30  1  0  0  0  0
 63 30  1  0  0  0  0
 64 31  1  0  0  0  0
 65 33  1  0  0  0  0
 67 33  1  0  0  0  0
 73 40  1  0  0  0  0
M  END
$$$$
