O=P1(O)OC2=C(C3=CC(C(C)(C)C)=CC(C(C)(C)C)=C3)C=C4C(CCCC4)=C2C5=C(O1)C(C6=CC(C(C)(C)C)=CC(C(C)(C)C)=C6)=CC7=C5CCCC7
 OpenBabel09032010373D

114120  0  0  0  0  0  0  0  0999 V2000
   -0.2595    1.7370    1.3708 O   0  0  0  0  0  0  0  0  0  0  0  0
    0.1149    0.4448    0.7151 P   0  0  0  0  0  0  0  0  0  0  0  0
    0.8608   -0.5458    1.7426 O   0  0  0  0  0  0  0  0  0  0  0  0
    1.1720    0.5826   -0.4949 O   0  0  0  0  0  0  0  0  0  0  0  0
    1.4264   -0.5214   -1.2799 C   0  0  0  0  0  0  0  0  0  0  0  0
    2.7063   -1.0964   -1.1713 C   0  0  0  0  0  0  0  0  0  0  0  0
    3.7223   -0.5742   -0.2410 C   0  0  0  0  0  0  0  0  0  0  0  0
    4.1614   -1.3523    0.8411 C   0  0  0  0  0  0  0  0  0  0  0  0
    5.1057   -0.8787    1.7690 C   0  0  0  0  0  0  0  0  0  0  0  0
    5.5453   -1.7712    2.9437 C   0  0  0  0  0  0  0  0  0  0  0  0
    6.1613   -3.0794    2.4016 C   0  0  0  0  0  0  0  0  0  0  0  0
    6.6001   -1.1202    3.8667 C   0  0  0  0  0  0  0  0  0  0  0  0
    4.3199   -2.1106    3.8199 C   0  0  0  0  0  0  0  0  0  0  0  0
    5.6043    0.4212    1.5710 C   0  0  0  0  0  0  0  0  0  0  0  0
    5.1952    1.2427    0.4971 C   0  0  0  0  0  0  0  0  0  0  0  0
    5.7770    2.6608    0.3445 C   0  0  0  0  0  0  0  0  0  0  0  0
    7.3103    2.5788    0.1821 C   0  0  0  0  0  0  0  0  0  0  0  0
    5.2308    3.4350   -0.8770 C   0  0  0  0  0  0  0  0  0  0  0  0
    5.4413    3.4967    1.5988 C   0  0  0  0  0  0  0  0  0  0  0  0
    4.2514    0.7158   -0.3974 C   0  0  0  0  0  0  0  0  0  0  0  0
    2.9837   -2.2147   -1.9589 C   0  0  0  0  0  0  0  0  0  0  0  0
    2.0072   -2.7814   -2.7895 C   0  0  0  0  0  0  0  0  0  0  0  0
    0.7251   -2.1838   -2.8867 C   0  0  0  0  0  0  0  0  0  0  0  0
   -0.3775   -2.9495   -3.6113 C   0  0  0  0  0  0  0  0  0  0  0  0
    0.1359   -3.9406   -4.6525 C   0  0  0  0  0  0  0  0  0  0  0  0
    1.1969   -4.8384   -4.0404 C   0  0  0  0  0  0  0  0  0  0  0  0
    2.3894   -4.0052   -3.5908 C   0  0  0  0  0  0  0  0  0  0  0  0
    0.4185   -0.9886   -2.1579 C   0  0  0  0  0  0  0  0  0  0  0  0
   -0.8401   -0.2928   -2.2491 C   0  0  0  0  0  0  0  0  0  0  0  0
   -1.6158   -0.0796   -1.0824 C   0  0  0  0  0  0  0  0  0  0  0  0
   -1.0930   -0.4544    0.1372 O   0  0  0  0  0  0  0  0  0  0  0  0
   -2.9052    0.4808   -1.0878 C   0  0  0  0  0  0  0  0  0  0  0  0
   -3.7069    0.6274    0.1387 C   0  0  0  0  0  0  0  0  0  0  0  0
   -4.1310   -0.5008    0.8564 C   0  0  0  0  0  0  0  0  0  0  0  0
   -4.8951   -0.3967    2.0321 C   0  0  0  0  0  0  0  0  0  0  0  0
   -5.3201   -1.6683    2.7873 C   0  0  0  0  0  0  0  0  0  0  0  0
   -4.0647   -2.4512    3.2301 C   0  0  0  0  0  0  0  0  0  0  0  0
   -6.1761   -2.5608    1.8624 C   0  0  0  0  0  0  0  0  0  0  0  0
   -6.1575   -1.3940    4.0571 C   0  0  0  0  0  0  0  0  0  0  0  0
   -5.2289    0.8977    2.4686 C   0  0  0  0  0  0  0  0  0  0  0  0
   -4.8259    2.0648    1.7822 C   0  0  0  0  0  0  0  0  0  0  0  0
   -5.2129    3.4524    2.3269 C   0  0  0  0  0  0  0  0  0  0  0  0
   -4.7069    4.6294    1.4618 C   0  0  0  0  0  0  0  0  0  0  0  0
   -6.7508    3.5721    2.4004 C   0  0  0  0  0  0  0  0  0  0  0  0
   -4.6193    3.6385    3.7401 C   0  0  0  0  0  0  0  0  0  0  0  0
   -4.0630    1.8983    0.6160 C   0  0  0  0  0  0  0  0  0  0  0  0
   -3.4202    0.9064   -2.3142 C   0  0  0  0  0  0  0  0  0  0  0  0
   -2.6658    0.8228   -3.4928 C   0  0  0  0  0  0  0  0  0  0  0  0
   -1.3783    0.2318   -3.4681 C   0  0  0  0  0  0  0  0  0  0  0  0
   -0.5014    0.3485   -4.7102 C   0  0  0  0  0  0  0  0  0  0  0  0
   -1.2854    0.5300   -6.0073 C   0  0  0  0  0  0  0  0  0  0  0  0
   -2.2850    1.6639   -5.8591 C   0  0  0  0  0  0  0  0  0  0  0  0
   -3.2957    1.3307   -4.7697 C   0  0  0  0  0  0  0  0  0  0  0  0
    1.5303   -0.0533    2.2514 H   0  0  0  0  0  0  0  0  0  0  0  0
    3.7359   -2.3476    0.9637 H   0  0  0  0  0  0  0  0  0  0  0  0
    5.4412   -3.6702    1.8250 H   0  0  0  0  0  0  0  0  0  0  0  0
    7.0154   -2.8709    1.7464 H   0  0  0  0  0  0  0  0  0  0  0  0
    6.5161   -3.7177    3.2192 H   0  0  0  0  0  0  0  0  0  0  0  0
    7.5183   -0.8752    3.3201 H   0  0  0  0  0  0  0  0  0  0  0  0
    6.2208   -0.2010    4.3282 H   0  0  0  0  0  0  0  0  0  0  0  0
    6.8820   -1.7963    4.6829 H   0  0  0  0  0  0  0  0  0  0  0  0
    3.8405   -1.1995    4.1973 H   0  0  0  0  0  0  0  0  0  0  0  0
    3.5605   -2.6773    3.2699 H   0  0  0  0  0  0  0  0  0  0  0  0
    4.6089   -2.7186    4.6852 H   0  0  0  0  0  0  0  0  0  0  0  0
    6.3357    0.8239    2.2668 H   0  0  0  0  0  0  0  0  0  0  0  0
    7.7459    3.5740    0.0345 H   0  0  0  0  0  0  0  0  0  0  0  0
    7.7987    2.1437    1.0608 H   0  0  0  0  0  0  0  0  0  0  0  0
    7.5826    1.9637   -0.6839 H   0  0  0  0  0  0  0  0  0  0  0  0
    5.6749    4.4356   -0.9414 H   0  0  0  0  0  0  0  0  0  0  0  0
    5.4611    2.9201   -1.8171 H   0  0  0  0  0  0  0  0  0  0  0  0
    4.1444    3.5689   -0.8173 H   0  0  0  0  0  0  0  0  0  0  0  0
    5.8123    4.5237    1.5002 H   0  0  0  0  0  0  0  0  0  0  0  0
    4.3580    3.5473    1.7603 H   0  0  0  0  0  0  0  0  0  0  0  0
    5.8900    3.0810    2.5075 H   0  0  0  0  0  0  0  0  0  0  0  0
    3.8962    1.3038   -1.2406 H   0  0  0  0  0  0  0  0  0  0  0  0
    3.9718   -2.6709   -1.9054 H   0  0  0  0  0  0  0  0  0  0  0  0
   -0.9480   -3.4957   -2.8483 H   0  0  0  0  0  0  0  0  0  0  0  0
   -1.0823   -2.2877   -4.1164 H   0  0  0  0  0  0  0  0  0  0  0  0
   -0.6979   -4.5463   -5.0251 H   0  0  0  0  0  0  0  0  0  0  0  0
    0.5533   -3.4008   -5.5118 H   0  0  0  0  0  0  0  0  0  0  0  0
    1.5238   -5.5902   -4.7674 H   0  0  0  0  0  0  0  0  0  0  0  0
    0.7740   -5.3801   -3.1849 H   0  0  0  0  0  0  0  0  0  0  0  0
    3.0573   -4.6458   -3.0020 H   0  0  0  0  0  0  0  0  0  0  0  0
    2.9511   -3.6678   -4.4711 H   0  0  0  0  0  0  0  0  0  0  0  0
   -3.8451   -1.4828    0.4826 H   0  0  0  0  0  0  0  0  0  0  0  0
   -4.3381   -3.3455    3.8023 H   0  0  0  0  0  0  0  0  0  0  0  0
   -3.4184   -1.8335    3.8648 H   0  0  0  0  0  0  0  0  0  0  0  0
   -3.4635   -2.7880    2.3784 H   0  0  0  0  0  0  0  0  0  0  0  0
   -7.0610   -2.0219    1.5035 H   0  0  0  0  0  0  0  0  0  0  0  0
   -5.6195   -2.9017    0.9827 H   0  0  0  0  0  0  0  0  0  0  0  0
   -6.5225   -3.4579    2.3888 H   0  0  0  0  0  0  0  0  0  0  0  0
   -5.6002   -0.7950    4.7868 H   0  0  0  0  0  0  0  0  0  0  0  0
   -6.4366   -2.3299    4.5561 H   0  0  0  0  0  0  0  0  0  0  0  0
   -7.0885   -0.8659    3.8202 H   0  0  0  0  0  0  0  0  0  0  0  0
   -5.8142    1.0199    3.3758 H   0  0  0  0  0  0  0  0  0  0  0  0
   -3.6127    4.6410    1.3958 H   0  0  0  0  0  0  0  0  0  0  0  0
   -5.1109    4.5846    0.4437 H   0  0  0  0  0  0  0  0  0  0  0  0
   -5.0128    5.5926    1.8876 H   0  0  0  0  0  0  0  0  0  0  0  0
   -7.1923    2.8439    3.0893 H   0  0  0  0  0  0  0  0  0  0  0  0
   -7.0535    4.5662    2.7497 H   0  0  0  0  0  0  0  0  0  0  0  0
   -7.2060    3.4116    1.4158 H   0  0  0  0  0  0  0  0  0  0  0  0
   -5.0145    2.9095    4.4560 H   0  0  0  0  0  0  0  0  0  0  0  0
   -3.5284    3.5284    3.7271 H   0  0  0  0  0  0  0  0  0  0  0  0
   -4.8494    4.6340    4.1375 H   0  0  0  0  0  0  0  0  0  0  0  0
   -3.7083    2.7617    0.0588 H   0  0  0  0  0  0  0  0  0  0  0  0
   -4.4225    1.3329   -2.3493 H   0  0  0  0  0  0  0  0  0  0  0  0
    0.1501   -0.5166   -4.8433 H   0  0  0  0  0  0  0  0  0  0  0  0
    0.1538    1.2175   -4.5639 H   0  0  0  0  0  0  0  0  0  0  0  0
   -0.5922    0.7466   -6.8279 H   0  0  0  0  0  0  0  0  0  0  0  0
   -1.8097   -0.3994   -6.2630 H   0  0  0  0  0  0  0  0  0  0  0  0
   -2.8065    1.8369   -6.8070 H   0  0  0  0  0  0  0  0  0  0  0  0
   -1.7562    2.5922   -5.6084 H   0  0  0  0  0  0  0  0  0  0  0  0
   -3.9836    0.5577   -5.1352 H   0  0  0  0  0  0  0  0  0  0  0  0
   -3.8914    2.2282   -4.5628 H   0  0  0  0  0  0  0  0  0  0  0  0
  2  1  2  0  0  0  0
  2  3  1  0  0  0  0
  3 54  1  0  0  0  0
  4  2  1  0  0  0  0
  5  6  1  0  0  0  0
  5  4  1  0  0  0  0
  6  7  1  0  0  0  0
  7  8  1  0  0  0  0
  8 55  1  0  0  0  0
  8  9  2  0  0  0  0
  9 10  1  0  0  0  0
 10 13  1  0  0  0  0
 10 12  1  0  0  0  0
 11 10  1  0  0  0  0
 11 58  1  0  0  0  0
 12 60  1  0  0  0  0
 12 61  1  0  0  0  0
 13 62  1  0  0  0  0
 13 64  1  0  0  0  0
 14  9  1  0  0  0  0
 14 65  1  0  0  0  0
 15 14  2  0  0  0  0
 16 15  1  0  0  0  0
 16 19  1  0  0  0  0
 17 16  1  0  0  0  0
 17 67  1  0  0  0  0
 18 71  1  0  0  0  0
 18 16  1  0  0  0  0
 19 73  1  0  0  0  0
 19 74  1  0  0  0  0
 20  7  2  0  0  0  0
 20 15  1  0  0  0  0
 21 76  1  0  0  0  0
 21  6  2  0  0  0  0
 22 21  1  0  0  0  0
 23 22  2  0  0  0  0
 23 28  1  0  0  0  0
 24 23  1  0  0  0  0
 24 77  1  0  0  0  0
 25 26  1  0  0  0  0
 25 24  1  0  0  0  0
 26 27  1  0  0  0  0
 26 82  1  0  0  0  0
 27 83  1  0  0  0  0
 27 22  1  0  0  0  0
 28  5  2  0  0  0  0
 29 28  1  0  0  0  0
 29 30  2  0  0  0  0
 30 31  1  0  0  0  0
 31  2  1  0  0  0  0
 32 30  1  0  0  0  0
 32 33  1  0  0  0  0
 33 46  2  0  0  0  0
 33 34  1  0  0  0  0
 34 35  2  0  0  0  0
 35 40  1  0  0  0  0
 35 36  1  0  0  0  0
 36 37  1  0  0  0  0
 36 39  1  0  0  0  0
 37 86  1  0  0  0  0
 37 87  1  0  0  0  0
 38 91  1  0  0  0  0
 38 36  1  0  0  0  0
 39 93  1  0  0  0  0
 39 92  1  0  0  0  0
 40 95  1  0  0  0  0
 41 42  1  0  0  0  0
 41 40  2  0  0  0  0
 42 44  1  0  0  0  0
 42 45  1  0  0  0  0
 43 98  1  0  0  0  0
 43 42  1  0  0  0  0
 44100  1  0  0  0  0
 44 99  1  0  0  0  0
 45104  1  0  0  0  0
 45102  1  0  0  0  0
 46 41  1  0  0  0  0
 47 32  2  0  0  0  0
 48 49  2  0  0  0  0
 48 47  1  0  0  0  0
 49 29  1  0  0  0  0
 50108  1  0  0  0  0
 50 49  1  0  0  0  0
 51 52  1  0  0  0  0
 51 50  1  0  0  0  0
 52112  1  0  0  0  0
 52 53  1  0  0  0  0
 53114  1  0  0  0  0
 53 48  1  0  0  0  0
 56 11  1  0  0  0  0
 57 11  1  0  0  0  0
 59 12  1  0  0  0  0
 63 13  1  0  0  0  0
 66 17  1  0  0  0  0
 68 17  1  0  0  0  0
 69 18  1  0  0  0  0
 70 18  1  0  0  0  0
 72 19  1  0  0  0  0
 75 20  1  0  0  0  0
 78 24  1  0  0  0  0
 79 25  1  0  0  0  0
 80 25  1  0  0  0  0
 81 26  1  0  0  0  0
 84 27  1  0  0  0  0
 85 34  1  0  0  0  0
 88 37  1  0  0  0  0
 89 38  1  0  0  0  0
 90 38  1  0  0  0  0
 94 39  1  0  0  0  0
 96 43  1  0  0  0  0
 97 43  1  0  0  0  0
101 44  1  0  0  0  0
103 45  1  0  0  0  0
105 46  1  0  0  0  0
106 47  1  0  0  0  0
107 50  1  0  0  0  0
109 51  1  0  0  0  0
110 51  1  0  0  0  0
111 52  1  0  0  0  0
113 53  1  0  0  0  0
M  END
$$$$
