O=P1(O)OC2=C([Si](C3=CC=CC=C3)(C4=CC=CC=C4)C5=CC=CC=C5)C=C6C(C=CC=C6)=C2C7=C(O1)C([Si](C8=CC=CC=C8)(C9=CC=CC=C9)C%10=CC=CC=C%10)=CC%11=C7C=CC=C%11
 OpenBabel09032010383D

104114  0  0  0  0  0  0  0  0999 V2000
    0.9040    1.0948    2.1204 O   0  0  0  0  0  0  0  0  0  0  0  0
    0.1041    0.9102    0.8681 P   0  0  0  0  0  0  0  0  0  0  0  0
   -0.7561    2.2143    0.4917 O   0  0  0  0  0  0  0  0  0  0  0  0
    0.9547    0.6737   -0.4807 O   0  0  0  0  0  0  0  0  0  0  0  0
    1.5622   -0.5451   -0.6234 C   0  0  0  0  0  0  0  0  0  0  0  0
    2.9641   -0.6095   -0.5215 C   0  0  0  0  0  0  0  0  0  0  0  0
    4.1117    0.8501   -0.2519 Si  0  0  0  0  0  0  0  0  0  0  0  0
    5.1062    0.4245    1.2756 C   0  0  0  0  0  0  0  0  0  0  0  0
    4.4468    0.1096    2.4836 C   0  0  0  0  0  0  0  0  0  0  0  0
    5.1613   -0.2197    3.6384 C   0  0  0  0  0  0  0  0  0  0  0  0
    6.5511   -0.2495    3.6132 C   0  0  0  0  0  0  0  0  0  0  0  0
    7.2264    0.0454    2.4328 C   0  0  0  0  0  0  0  0  0  0  0  0
    6.5125    0.3742    1.2753 C   0  0  0  0  0  0  0  0  0  0  0  0
    3.2462    2.4930   -0.0429 C   0  0  0  0  0  0  0  0  0  0  0  0
    3.2556    3.2041    1.1720 C   0  0  0  0  0  0  0  0  0  0  0  0
    2.5934    4.4294    1.3041 C   0  0  0  0  0  0  0  0  0  0  0  0
    1.9027    4.9714    0.2266 C   0  0  0  0  0  0  0  0  0  0  0  0
    1.8824    4.2951   -0.9875 C   0  0  0  0  0  0  0  0  0  0  0  0
    2.5638    3.0830   -1.1281 C   0  0  0  0  0  0  0  0  0  0  0  0
    5.2403    1.0780   -1.7336 C   0  0  0  0  0  0  0  0  0  0  0  0
    5.2143    0.2210   -2.8499 C   0  0  0  0  0  0  0  0  0  0  0  0
    6.0630    0.4294   -3.9426 C   0  0  0  0  0  0  0  0  0  0  0  0
    6.9487    1.5021   -3.9496 C   0  0  0  0  0  0  0  0  0  0  0  0
    6.9835    2.3737   -2.8671 C   0  0  0  0  0  0  0  0  0  0  0  0
    6.1373    2.1676   -1.7744 C   0  0  0  0  0  0  0  0  0  0  0  0
    3.5315   -1.8940   -0.6095 C   0  0  0  0  0  0  0  0  0  0  0  0
    2.7579   -3.0465   -0.7951 C   0  0  0  0  0  0  0  0  0  0  0  0
    1.3511   -2.9441   -0.9315 C   0  0  0  0  0  0  0  0  0  0  0  0
    0.6376   -4.1657   -1.0395 C   0  0  0  0  0  0  0  0  0  0  0  0
    1.2755   -5.4086   -1.0695 C   0  0  0  0  0  0  0  0  0  0  0  0
    2.6560   -5.4752   -0.9747 C   0  0  0  0  0  0  0  0  0  0  0  0
    3.3908   -4.3013   -0.8327 C   0  0  0  0  0  0  0  0  0  0  0  0
    0.7178   -1.6526   -0.9047 C   0  0  0  0  0  0  0  0  0  0  0  0
   -0.6943   -1.4429   -1.1752 C   0  0  0  0  0  0  0  0  0  0  0  0
   -1.5415   -0.7817   -0.2326 C   0  0  0  0  0  0  0  0  0  0  0  0
   -0.9789   -0.2820    0.9171 O   0  0  0  0  0  0  0  0  0  0  0  0
   -2.9447   -0.6930   -0.3602 C   0  0  0  0  0  0  0  0  0  0  0  0
   -4.1075    0.0493    0.9231 Si  0  0  0  0  0  0  0  0  0  0  0  0
   -5.7470   -0.8804    0.8147 C   0  0  0  0  0  0  0  0  0  0  0  0
   -5.7713   -2.2911    0.7568 C   0  0  0  0  0  0  0  0  0  0  0  0
   -6.9746   -2.9966    0.6628 C   0  0  0  0  0  0  0  0  0  0  0  0
   -8.1838   -2.3114    0.6220 C   0  0  0  0  0  0  0  0  0  0  0  0
   -8.1896   -0.9212    0.6742 C   0  0  0  0  0  0  0  0  0  0  0  0
   -6.9862   -0.2130    0.7686 C   0  0  0  0  0  0  0  0  0  0  0  0
   -3.4438   -0.0978    2.6628 C   0  0  0  0  0  0  0  0  0  0  0  0
   -2.6623    0.9292    3.2343 C   0  0  0  0  0  0  0  0  0  0  0  0
   -2.1480    0.8259    4.5307 C   0  0  0  0  0  0  0  0  0  0  0  0
   -2.4104   -0.3037    5.2965 C   0  0  0  0  0  0  0  0  0  0  0  0
   -3.1815   -1.3305    4.7635 C   0  0  0  0  0  0  0  0  0  0  0  0
   -3.6900   -1.2300    3.4633 C   0  0  0  0  0  0  0  0  0  0  0  0
   -4.4124    1.8532    0.5154 C   0  0  0  0  0  0  0  0  0  0  0  0
   -4.0678    2.4047   -0.7334 C   0  0  0  0  0  0  0  0  0  0  0  0
   -4.3066    3.7528   -1.0212 C   0  0  0  0  0  0  0  0  0  0  0  0
   -4.8942    4.5804   -0.0697 C   0  0  0  0  0  0  0  0  0  0  0  0
   -5.2448    4.0624    1.1722 C   0  0  0  0  0  0  0  0  0  0  0  0
   -5.0080    2.7155    1.4613 C   0  0  0  0  0  0  0  0  0  0  0  0
   -3.4988   -1.1976   -1.5514 C   0  0  0  0  0  0  0  0  0  0  0  0
   -2.7195   -1.7754   -2.5586 C   0  0  0  0  0  0  0  0  0  0  0  0
   -1.3182   -1.8925   -2.3928 C   0  0  0  0  0  0  0  0  0  0  0  0
   -0.6017   -2.4189   -3.5006 C   0  0  0  0  0  0  0  0  0  0  0  0
   -1.2310   -2.8600   -4.6682 C   0  0  0  0  0  0  0  0  0  0  0  0
   -2.6080   -2.7732   -4.7812 C   0  0  0  0  0  0  0  0  0  0  0  0
   -3.3453   -2.2270   -3.7348 C   0  0  0  0  0  0  0  0  0  0  0  0
   -0.1859    3.0076    0.5486 H   0  0  0  0  0  0  0  0  0  0  0  0
    3.3571    0.1204    2.5483 H   0  0  0  0  0  0  0  0  0  0  0  0
    4.6251   -0.4527    4.5552 H   0  0  0  0  0  0  0  0  0  0  0  0
    7.1065   -0.5062    4.5108 H   0  0  0  0  0  0  0  0  0  0  0  0
    8.3129    0.0168    2.4082 H   0  0  0  0  0  0  0  0  0  0  0  0
    7.0847    0.5829    0.3734 H   0  0  0  0  0  0  0  0  0  0  0  0
    3.7753    2.8186    2.0483 H   0  0  0  0  0  0  0  0  0  0  0  0
    2.6197    4.9561    2.2555 H   0  0  0  0  0  0  0  0  0  0  0  0
    1.3755    5.9144    0.3336 H   0  0  0  0  0  0  0  0  0  0  0  0
    1.3322    4.7060   -1.8290 H   0  0  0  0  0  0  0  0  0  0  0  0
    2.5400    2.5924   -2.1026 H   0  0  0  0  0  0  0  0  0  0  0  0
    4.5282   -0.6221   -2.9032 H   0  0  0  0  0  0  0  0  0  0  0  0
    6.0260   -0.2476   -4.7926 H   0  0  0  0  0  0  0  0  0  0  0  0
    7.6052    1.6619   -4.8005 H   0  0  0  0  0  0  0  0  0  0  0  0
    7.6659    3.2197   -2.8713 H   0  0  0  0  0  0  0  0  0  0  0  0
    6.1873    2.8798   -0.9496 H   0  0  0  0  0  0  0  0  0  0  0  0
    4.6134   -2.0110   -0.5083 H   0  0  0  0  0  0  0  0  0  0  0  0
   -0.4499   -4.1650   -1.0883 H   0  0  0  0  0  0  0  0  0  0  0  0
    0.6875   -6.3178   -1.1595 H   0  0  0  0  0  0  0  0  0  0  0  0
    3.1624   -6.4360   -0.9939 H   0  0  0  0  0  0  0  0  0  0  0  0
    4.4728   -4.3755   -0.7370 H   0  0  0  0  0  0  0  0  0  0  0  0
   -4.8458   -2.8672    0.7787 H   0  0  0  0  0  0  0  0  0  0  0  0
   -6.9631   -4.0826    0.6196 H   0  0  0  0  0  0  0  0  0  0  0  0
   -9.1202   -2.8584    0.5481 H   0  0  0  0  0  0  0  0  0  0  0  0
   -9.1335   -0.3820    0.6392 H   0  0  0  0  0  0  0  0  0  0  0  0
   -7.0451    0.8734    0.7979 H   0  0  0  0  0  0  0  0  0  0  0  0
   -2.4244    1.8303    2.6690 H   0  0  0  0  0  0  0  0  0  0  0  0
   -1.5358    1.6279    4.9352 H   0  0  0  0  0  0  0  0  0  0  0  0
   -2.0109   -0.3863    6.3034 H   0  0  0  0  0  0  0  0  0  0  0  0
   -3.3874   -2.2178    5.3565 H   0  0  0  0  0  0  0  0  0  0  0  0
   -4.2863   -2.0629    3.0977 H   0  0  0  0  0  0  0  0  0  0  0  0
   -3.6004    1.7994   -1.5084 H   0  0  0  0  0  0  0  0  0  0  0  0
   -4.0313    4.1543   -1.9932 H   0  0  0  0  0  0  0  0  0  0  0  0
   -5.0789    5.6268   -0.2963 H   0  0  0  0  0  0  0  0  0  0  0  0
   -5.7041    4.7042    1.9196 H   0  0  0  0  0  0  0  0  0  0  0  0
   -5.2988    2.3466    2.4456 H   0  0  0  0  0  0  0  0  0  0  0  0
   -4.5762   -1.1272   -1.7187 H   0  0  0  0  0  0  0  0  0  0  0  0
    0.4844   -2.4831   -3.4731 H   0  0  0  0  0  0  0  0  0  0  0  0
   -0.6377   -3.2636   -5.4840 H   0  0  0  0  0  0  0  0  0  0  0  0
   -3.1077   -3.1130   -5.6841 H   0  0  0  0  0  0  0  0  0  0  0  0
   -4.4254   -2.1476   -3.8499 H   0  0  0  0  0  0  0  0  0  0  0  0
  2 36  1  0  0  0  0
  2  1  2  0  0  0  0
  3 64  1  0  0  0  0
  3  2  1  0  0  0  0
  4  2  1  0  0  0  0
  5  6  2  0  0  0  0
  5  4  1  0  0  0  0
  6  7  1  0  0  0  0
  7 14  1  0  0  0  0
  7  8  1  0  0  0  0
  8  9  1  0  0  0  0
  9 65  1  0  0  0  0
  9 10  2  0  0  0  0
 10 66  1  0  0  0  0
 11 10  1  0  0  0  0
 11 67  1  0  0  0  0
 12 11  2  0  0  0  0
 13  8  2  0  0  0  0
 13 12  1  0  0  0  0
 14 15  2  0  0  0  0
 15 16  1  0  0  0  0
 15 70  1  0  0  0  0
 16 71  1  0  0  0  0
 17 72  1  0  0  0  0
 17 16  2  0  0  0  0
 18 17  1  0  0  0  0
 19 18  2  0  0  0  0
 19 14  1  0  0  0  0
 20  7  1  0  0  0  0
 21 20  2  0  0  0  0
 22 21  1  0  0  0  0
 23 22  2  0  0  0  0
 23 24  1  0  0  0  0
 24 25  2  0  0  0  0
 25 20  1  0  0  0  0
 25 79  1  0  0  0  0
 26  6  1  0  0  0  0
 26 80  1  0  0  0  0
 27 26  2  0  0  0  0
 28 33  2  0  0  0  0
 28 27  1  0  0  0  0
 29 28  1  0  0  0  0
 30 29  2  0  0  0  0
 30 31  1  0  0  0  0
 31 32  2  0  0  0  0
 32 27  1  0  0  0  0
 32 84  1  0  0  0  0
 33  5  1  0  0  0  0
 34 33  1  0  0  0  0
 34 35  2  0  0  0  0
 35 36  1  0  0  0  0
 37 35  1  0  0  0  0
 37 38  1  0  0  0  0
 38 45  1  0  0  0  0
 39 38  1  0  0  0  0
 40 85  1  0  0  0  0
 40 39  2  0  0  0  0
 41 40  1  0  0  0  0
 42 41  2  0  0  0  0
 42 43  1  0  0  0  0
 43 44  2  0  0  0  0
 44 89  1  0  0  0  0
 44 39  1  0  0  0  0
 45 46  2  0  0  0  0
 45 50  1  0  0  0  0
 46 47  1  0  0  0  0
 47 91  1  0  0  0  0
 47 48  2  0  0  0  0
 48 92  1  0  0  0  0
 49 48  1  0  0  0  0
 49 93  1  0  0  0  0
 50 49  2  0  0  0  0
 51 38  1  0  0  0  0
 51 56  2  0  0  0  0
 52 51  1  0  0  0  0
 53 52  2  0  0  0  0
 53 54  1  0  0  0  0
 54 55  2  0  0  0  0
 55 56  1  0  0  0  0
 55 98  1  0  0  0  0
 56 99  1  0  0  0  0
 57 37  2  0  0  0  0
 58 59  1  0  0  0  0
 58 57  1  0  0  0  0
 59 34  1  0  0  0  0
 60101  1  0  0  0  0
 60 59  2  0  0  0  0
 61 60  1  0  0  0  0
 62 61  2  0  0  0  0
 62 63  1  0  0  0  0
 63 58  2  0  0  0  0
 68 12  1  0  0  0  0
 69 13  1  0  0  0  0
 73 18  1  0  0  0  0
 74 19  1  0  0  0  0
 75 21  1  0  0  0  0
 76 22  1  0  0  0  0
 77 23  1  0  0  0  0
 78 24  1  0  0  0  0
 81 29  1  0  0  0  0
 82 30  1  0  0  0  0
 83 31  1  0  0  0  0
 86 41  1  0  0  0  0
 87 42  1  0  0  0  0
 88 43  1  0  0  0  0
 90 46  1  0  0  0  0
 94 50  1  0  0  0  0
 95 52  1  0  0  0  0
 96 53  1  0  0  0  0
 97 54  1  0  0  0  0
100 57  1  0  0  0  0
102 61  1  0  0  0  0
103 62  1  0  0  0  0
104 63  1  0  0  0  0
M  END
$$$$
