O=P1(O)OC2=C(C3=CC=C(C4=CC=C(C=CC=C5)C5=C4)C=C3)C=C6C(C=CC=C6)=C2C7=C(O1)C(C8=CC=C(C9=CC(C=CC=C%10)=C%10C=C9)C=C8)=CC%11=C7C=CC=C%11
 OpenBabel09032010373D

 90100  0  0  0  0  0  0  0  0999 V2000
    0.2416   -1.3168   -0.6039 O   0  0  0  0  0  0  0  0  0  0  0  0
   -0.2058    0.0503   -0.1892 P   0  0  0  0  0  0  0  0  0  0  0  0
   -0.9162    0.0196    1.2543 O   0  0  0  0  0  0  0  0  0  0  0  0
   -1.3203    0.7117   -1.1440 O   0  0  0  0  0  0  0  0  0  0  0  0
   -1.6565    2.0344   -0.9574 C   0  0  0  0  0  0  0  0  0  0  0  0
   -2.9593    2.2899   -0.4931 C   0  0  0  0  0  0  0  0  0  0  0  0
   -3.8987    1.2077   -0.1622 C   0  0  0  0  0  0  0  0  0  0  0  0
   -4.2750    0.9704    1.1669 C   0  0  0  0  0  0  0  0  0  0  0  0
   -5.1527   -0.0703    1.4903 C   0  0  0  0  0  0  0  0  0  0  0  0
   -5.6860   -0.9050    0.4960 C   0  0  0  0  0  0  0  0  0  0  0  0
   -6.6084   -2.0015    0.8382 C   0  0  0  0  0  0  0  0  0  0  0  0
   -7.7293   -1.7749    1.6496 C   0  0  0  0  0  0  0  0  0  0  0  0
   -8.6038   -2.8143    1.9802 C   0  0  0  0  0  0  0  0  0  0  0  0
   -8.3837   -4.1140    1.5052 C   0  0  0  0  0  0  0  0  0  0  0  0
   -9.2534   -5.1684    1.8274 C   0  0  0  0  0  0  0  0  0  0  0  0
   -9.0202   -6.4569    1.3454 C   0  0  0  0  0  0  0  0  0  0  0  0
   -7.9162   -6.7067    0.5361 C   0  0  0  0  0  0  0  0  0  0  0  0
   -7.0426   -5.6686    0.2074 C   0  0  0  0  0  0  0  0  0  0  0  0
   -7.2629   -4.3659    0.6844 C   0  0  0  0  0  0  0  0  0  0  0  0
   -6.3925   -3.3078    0.3642 C   0  0  0  0  0  0  0  0  0  0  0  0
   -5.3102   -0.6604   -0.8337 C   0  0  0  0  0  0  0  0  0  0  0  0
   -4.4299    0.3783   -1.1581 C   0  0  0  0  0  0  0  0  0  0  0  0
   -3.3448    3.6210   -0.3318 C   0  0  0  0  0  0  0  0  0  0  0  0
   -2.4593    4.6722   -0.5857 C   0  0  0  0  0  0  0  0  0  0  0  0
   -1.1403    4.4025   -1.0415 C   0  0  0  0  0  0  0  0  0  0  0  0
   -0.2827    5.5256   -1.1684 C   0  0  0  0  0  0  0  0  0  0  0  0
   -0.7146    6.8341   -0.9340 C   0  0  0  0  0  0  0  0  0  0  0  0
   -2.0219    7.0684   -0.5413 C   0  0  0  0  0  0  0  0  0  0  0  0
   -2.8855    5.9923   -0.3607 C   0  0  0  0  0  0  0  0  0  0  0  0
   -0.7215    3.0444   -1.2938 C   0  0  0  0  0  0  0  0  0  0  0  0
    0.5692    2.6883   -1.8507 C   0  0  0  0  0  0  0  0  0  0  0  0
    1.4092    1.7713   -1.1681 C   0  0  0  0  0  0  0  0  0  0  0  0
    0.9465    1.1636   -0.0209 O   0  0  0  0  0  0  0  0  0  0  0  0
    2.7322    1.4914   -1.5506 C   0  0  0  0  0  0  0  0  0  0  0  0
    3.6061    0.6018   -0.7759 C   0  0  0  0  0  0  0  0  0  0  0  0
    3.5454   -0.7878   -0.9346 C   0  0  0  0  0  0  0  0  0  0  0  0
    4.3826   -1.6305   -0.1949 C   0  0  0  0  0  0  0  0  0  0  0  0
    5.3096   -1.1101    0.7209 C   0  0  0  0  0  0  0  0  0  0  0  0
    6.1805   -1.9990    1.5067 C   0  0  0  0  0  0  0  0  0  0  0  0
    7.5774   -1.8415    1.4981 C   0  0  0  0  0  0  0  0  0  0  0  0
    8.4218   -2.6835    2.2454 C   0  0  0  0  0  0  0  0  0  0  0  0
    9.8183   -2.5256    2.2315 C   0  0  0  0  0  0  0  0  0  0  0  0
   10.6403   -3.3699    2.9793 C   0  0  0  0  0  0  0  0  0  0  0  0
   10.0784   -4.3828    3.7504 C   0  0  0  0  0  0  0  0  0  0  0  0
    8.6935   -4.5542    3.7748 C   0  0  0  0  0  0  0  0  0  0  0  0
    7.8533   -3.7132    3.0273 C   0  0  0  0  0  0  0  0  0  0  0  0
    6.4608   -3.8733    3.0395 C   0  0  0  0  0  0  0  0  0  0  0  0
    5.6383   -3.0285    2.2887 C   0  0  0  0  0  0  0  0  0  0  0  0
    5.3722    0.2834    0.8710 C   0  0  0  0  0  0  0  0  0  0  0  0
    4.5331    1.1271    0.1343 C   0  0  0  0  0  0  0  0  0  0  0  0
    3.2243    2.1038   -2.7041 C   0  0  0  0  0  0  0  0  0  0  0  0
    2.4243    2.9475   -3.4794 C   0  0  0  0  0  0  0  0  0  0  0  0
    1.0918    3.2343   -3.0788 C   0  0  0  0  0  0  0  0  0  0  0  0
    0.3255    4.0259   -3.9719 C   0  0  0  0  0  0  0  0  0  0  0  0
    0.8562    4.5564   -5.1508 C   0  0  0  0  0  0  0  0  0  0  0  0
    2.1740    4.2980   -5.4910 C   0  0  0  0  0  0  0  0  0  0  0  0
    2.9503    3.4927   -4.6629 C   0  0  0  0  0  0  0  0  0  0  0  0
   -1.4642   -0.7817    1.3408 H   0  0  0  0  0  0  0  0  0  0  0  0
   -3.8694    1.5879    1.9667 H   0  0  0  0  0  0  0  0  0  0  0  0
   -5.4081   -0.2325    2.5359 H   0  0  0  0  0  0  0  0  0  0  0  0
   -7.9409   -0.7759    2.0256 H   0  0  0  0  0  0  0  0  0  0  0  0
   -9.4622   -2.5965    2.6113 H   0  0  0  0  0  0  0  0  0  0  0  0
  -10.1216   -4.9919    2.4583 H   0  0  0  0  0  0  0  0  0  0  0  0
   -9.7010   -7.2641    1.6021 H   0  0  0  0  0  0  0  0  0  0  0  0
   -7.7331   -7.7093    0.1589 H   0  0  0  0  0  0  0  0  0  0  0  0
   -6.1883   -5.8873   -0.4285 H   0  0  0  0  0  0  0  0  0  0  0  0
   -5.5220   -3.5100   -0.2580 H   0  0  0  0  0  0  0  0  0  0  0  0
   -5.7106   -1.2740   -1.6386 H   0  0  0  0  0  0  0  0  0  0  0  0
   -4.1596    0.5350   -2.2008 H   0  0  0  0  0  0  0  0  0  0  0  0
   -4.3534    3.8365    0.0200 H   0  0  0  0  0  0  0  0  0  0  0  0
    0.7619    5.3949   -1.4453 H   0  0  0  0  0  0  0  0  0  0  0  0
   -0.0214    7.6625   -1.0546 H   0  0  0  0  0  0  0  0  0  0  0  0
   -2.3658    8.0824   -0.3566 H   0  0  0  0  0  0  0  0  0  0  0  0
   -3.9012    6.1947   -0.0251 H   0  0  0  0  0  0  0  0  0  0  0  0
    2.8362   -1.2301   -1.6321 H   0  0  0  0  0  0  0  0  0  0  0  0
    4.3056   -2.7055   -0.3463 H   0  0  0  0  0  0  0  0  0  0  0  0
    8.0168   -1.0544    0.8873 H   0  0  0  0  0  0  0  0  0  0  0  0
   10.2763   -1.7400    1.6346 H   0  0  0  0  0  0  0  0  0  0  0  0
   11.7185   -3.2357    2.9583 H   0  0  0  0  0  0  0  0  0  0  0  0
   10.7170   -5.0411    4.3333 H   0  0  0  0  0  0  0  0  0  0  0  0
    8.2730   -5.3519    4.3829 H   0  0  0  0  0  0  0  0  0  0  0  0
    6.0005   -4.6573    3.6364 H   0  0  0  0  0  0  0  0  0  0  0  0
    4.5605   -3.1744    2.3289 H   0  0  0  0  0  0  0  0  0  0  0  0
    6.0660    0.7267    1.5822 H   0  0  0  0  0  0  0  0  0  0  0  0
    4.6003    2.2026    0.2849 H   0  0  0  0  0  0  0  0  0  0  0  0
    4.2477    1.8918   -3.0132 H   0  0  0  0  0  0  0  0  0  0  0  0
   -0.7224    4.2356   -3.7640 H   0  0  0  0  0  0  0  0  0  0  0  0
    0.2319    5.1649   -5.7997 H   0  0  0  0  0  0  0  0  0  0  0  0
    2.5942    4.7062   -6.4060 H   0  0  0  0  0  0  0  0  0  0  0  0
    3.9761    3.2808   -4.9596 H   0  0  0  0  0  0  0  0  0  0  0  0
  1  2  2  0  0  0  0
  2 33  1  0  0  0  0
  2  3  1  0  0  0  0
  3 58  1  0  0  0  0
  4  5  1  0  0  0  0
  4  2  1  0  0  0  0
  5  6  2  0  0  0  0
  6 23  1  0  0  0  0
  6  7  1  0  0  0  0
  7  8  2  0  0  0  0
  8  9  1  0  0  0  0
  8 59  1  0  0  0  0
  9 60  1  0  0  0  0
 10 11  1  0  0  0  0
 10  9  2  0  0  0  0
 11 12  2  0  0  0  0
 12 13  1  0  0  0  0
 12 61  1  0  0  0  0
 13 62  1  0  0  0  0
 14 15  1  0  0  0  0
 14 13  2  0  0  0  0
 15 63  1  0  0  0  0
 16 64  1  0  0  0  0
 16 15  2  0  0  0  0
 17 16  1  0  0  0  0
 18 17  2  0  0  0  0
 18 19  1  0  0  0  0
 19 14  1  0  0  0  0
 20 19  2  0  0  0  0
 20 11  1  0  0  0  0
 21 10  1  0  0  0  0
 22 21  2  0  0  0  0
 22  7  1  0  0  0  0
 23 70  1  0  0  0  0
 24 29  1  0  0  0  0
 24 23  2  0  0  0  0
 25 24  1  0  0  0  0
 26 25  1  0  0  0  0
 26 27  2  0  0  0  0
 27 28  1  0  0  0  0
 28 29  2  0  0  0  0
 28 73  1  0  0  0  0
 29 74  1  0  0  0  0
 30 25  2  0  0  0  0
 30  5  1  0  0  0  0
 31 30  1  0  0  0  0
 31 32  2  0  0  0  0
 32 33  1  0  0  0  0
 34 32  1  0  0  0  0
 34 35  1  0  0  0  0
 35 50  1  0  0  0  0
 36 35  2  0  0  0  0
 36 37  1  0  0  0  0
 37 38  2  0  0  0  0
 38 49  1  0  0  0  0
 38 39  1  0  0  0  0
 39 48  1  0  0  0  0
 40 39  2  0  0  0  0
 40 41  1  0  0  0  0
 41 46  1  0  0  0  0
 42 41  2  0  0  0  0
 42 43  1  0  0  0  0
 43 44  2  0  0  0  0
 44 45  1  0  0  0  0
 44 80  1  0  0  0  0
 45 81  1  0  0  0  0
 46 47  1  0  0  0  0
 46 45  2  0  0  0  0
 47 82  1  0  0  0  0
 48 83  1  0  0  0  0
 48 47  2  0  0  0  0
 49 84  1  0  0  0  0
 50 85  1  0  0  0  0
 50 49  2  0  0  0  0
 51 34  2  0  0  0  0
 52 53  1  0  0  0  0
 52 51  1  0  0  0  0
 53 31  1  0  0  0  0
 54 87  1  0  0  0  0
 54 53  2  0  0  0  0
 55 54  1  0  0  0  0
 56 55  2  0  0  0  0
 56 57  1  0  0  0  0
 57 52  2  0  0  0  0
 65 17  1  0  0  0  0
 66 18  1  0  0  0  0
 67 20  1  0  0  0  0
 68 21  1  0  0  0  0
 69 22  1  0  0  0  0
 71 26  1  0  0  0  0
 72 27  1  0  0  0  0
 75 36  1  0  0  0  0
 76 37  1  0  0  0  0
 77 40  1  0  0  0  0
 78 42  1  0  0  0  0
 79 43  1  0  0  0  0
 86 51  1  0  0  0  0
 88 55  1  0  0  0  0
 89 56  1  0  0  0  0
 90 57  1  0  0  0  0
M  END
$$$$
