O=P1(O)OC2=C(C3=CC=C(OC)C=C3)C=C4C(C=CC=C4)=C2C5=C(O1)C(C6=CC=C(OC)C=C6)=CC7=C5C=CC=C7
 OpenBabel09032010383D

 66 72  0  0  0  0  0  0  0  0999 V2000
   -0.7822    2.2663   -1.4319 O   0  0  0  0  0  0  0  0  0  0  0  0
   -0.1791    1.5182   -0.2839 P   0  0  0  0  0  0  0  0  0  0  0  0
    0.4592    2.5181    0.8026 O   0  0  0  0  0  0  0  0  0  0  0  0
    1.0529    0.5602   -0.6808 O   0  0  0  0  0  0  0  0  0  0  0  0
    1.5581   -0.3011    0.2682 C   0  0  0  0  0  0  0  0  0  0  0  0
    2.8602   -0.0328    0.7286 C   0  0  0  0  0  0  0  0  0  0  0  0
    3.6273    1.1397    0.2767 C   0  0  0  0  0  0  0  0  0  0  0  0
    3.9631    2.1629    1.1746 C   0  0  0  0  0  0  0  0  0  0  0  0
    4.6745    3.2864    0.7444 C   0  0  0  0  0  0  0  0  0  0  0  0
    5.0675    3.4137   -0.5887 C   0  0  0  0  0  0  0  0  0  0  0  0
    5.7510    4.5622   -0.8762 O   0  0  0  0  0  0  0  0  0  0  0  0
    6.1804    4.7358   -2.2210 C   0  0  0  0  0  0  0  0  0  0  0  0
    4.7433    2.4022   -1.4910 C   0  0  0  0  0  0  0  0  0  0  0  0
    4.0306    1.2758   -1.0600 C   0  0  0  0  0  0  0  0  0  0  0  0
    3.4136   -0.9106    1.6615 C   0  0  0  0  0  0  0  0  0  0  0  0
    2.6914   -2.0001    2.1569 C   0  0  0  0  0  0  0  0  0  0  0  0
    1.3713   -2.2534    1.6952 C   0  0  0  0  0  0  0  0  0  0  0  0
    0.6802   -3.3152    2.3343 C   0  0  0  0  0  0  0  0  0  0  0  0
    1.2729   -4.1200    3.3111 C   0  0  0  0  0  0  0  0  0  0  0  0
    2.5796   -3.8800    3.7022 C   0  0  0  0  0  0  0  0  0  0  0  0
    3.2807   -2.8212    3.1332 C   0  0  0  0  0  0  0  0  0  0  0  0
    0.7854   -1.4174    0.6749 C   0  0  0  0  0  0  0  0  0  0  0  0
   -0.5140   -1.6611    0.0788 C   0  0  0  0  0  0  0  0  0  0  0  0
   -1.4988   -0.6400    0.0808 C   0  0  0  0  0  0  0  0  0  0  0  0
   -1.1785    0.6019    0.5856 O   0  0  0  0  0  0  0  0  0  0  0  0
   -2.8263   -0.8350   -0.3361 C   0  0  0  0  0  0  0  0  0  0  0  0
   -3.8421    0.2213   -0.2505 C   0  0  0  0  0  0  0  0  0  0  0  0
   -4.7440    0.2605    0.8209 C   0  0  0  0  0  0  0  0  0  0  0  0
   -5.7161    1.2621    0.8969 C   0  0  0  0  0  0  0  0  0  0  0  0
   -5.8067    2.2438   -0.0917 C   0  0  0  0  0  0  0  0  0  0  0  0
   -6.7983    3.1650    0.1046 O   0  0  0  0  0  0  0  0  0  0  0  0
   -6.9019    4.2086   -0.8560 C   0  0  0  0  0  0  0  0  0  0  0  0
   -4.9151    2.2125   -1.1627 C   0  0  0  0  0  0  0  0  0  0  0  0
   -3.9433    1.2072   -1.2413 C   0  0  0  0  0  0  0  0  0  0  0  0
   -3.1792   -2.0896   -0.8349 C   0  0  0  0  0  0  0  0  0  0  0  0
   -2.2404   -3.1182   -0.9508 C   0  0  0  0  0  0  0  0  0  0  0  0
   -0.9022   -2.9157   -0.5182 C   0  0  0  0  0  0  0  0  0  0  0  0
    0.0015   -3.9825   -0.7583 C   0  0  0  0  0  0  0  0  0  0  0  0
   -0.3996   -5.1943   -1.3270 C   0  0  0  0  0  0  0  0  0  0  0  0
   -1.7223   -5.3788   -1.6955 C   0  0  0  0  0  0  0  0  0  0  0  0
   -2.6347   -4.3438   -1.5140 C   0  0  0  0  0  0  0  0  0  0  0  0
    0.9252    3.2489    0.3571 H   0  0  0  0  0  0  0  0  0  0  0  0
    3.6596    2.0980    2.2180 H   0  0  0  0  0  0  0  0  0  0  0  0
    4.9228    4.0693    1.4569 H   0  0  0  0  0  0  0  0  0  0  0  0
    5.3265    4.7836   -2.9047 H   0  0  0  0  0  0  0  0  0  0  0  0
    6.7097    5.6915   -2.2821 H   0  0  0  0  0  0  0  0  0  0  0  0
    6.8808    3.9476   -2.5166 H   0  0  0  0  0  0  0  0  0  0  0  0
    5.0261    2.4540   -2.5371 H   0  0  0  0  0  0  0  0  0  0  0  0
    3.7868    0.4983   -1.7824 H   0  0  0  0  0  0  0  0  0  0  0  0
    4.4242   -0.7232    2.0238 H   0  0  0  0  0  0  0  0  0  0  0  0
   -0.3583   -3.5274    2.0862 H   0  0  0  0  0  0  0  0  0  0  0  0
    0.7042   -4.9272    3.7653 H   0  0  0  0  0  0  0  0  0  0  0  0
    3.0474   -4.5005    4.4617 H   0  0  0  0  0  0  0  0  0  0  0  0
    4.2970   -2.6312    3.4740 H   0  0  0  0  0  0  0  0  0  0  0  0
   -4.6896   -0.4871    1.6094 H   0  0  0  0  0  0  0  0  0  0  0  0
   -6.4050    1.2790    1.7376 H   0  0  0  0  0  0  0  0  0  0  0  0
   -7.7228    4.8642   -0.5498 H   0  0  0  0  0  0  0  0  0  0  0  0
   -5.9881    4.8113   -0.8855 H   0  0  0  0  0  0  0  0  0  0  0  0
   -7.1460    3.8102   -1.8463 H   0  0  0  0  0  0  0  0  0  0  0  0
   -4.9394    2.9533   -1.9544 H   0  0  0  0  0  0  0  0  0  0  0  0
   -3.2545    1.2067   -2.0848 H   0  0  0  0  0  0  0  0  0  0  0  0
   -4.2056   -2.2521   -1.1636 H   0  0  0  0  0  0  0  0  0  0  0  0
    1.0568   -3.8782   -0.5119 H   0  0  0  0  0  0  0  0  0  0  0  0
    0.3281   -5.9861   -1.4838 H   0  0  0  0  0  0  0  0  0  0  0  0
   -2.0420   -6.3177   -2.1392 H   0  0  0  0  0  0  0  0  0  0  0  0
   -3.6642   -4.4987   -1.8322 H   0  0  0  0  0  0  0  0  0  0  0  0
  1  2  2  0  0  0  0
  2 25  1  0  0  0  0
  2  3  1  0  0  0  0
  4  2  1  0  0  0  0
  4  5  1  0  0  0  0
  5 22  2  0  0  0  0
  5  6  1  0  0  0  0
  6 15  2  0  0  0  0
  7  6  1  0  0  0  0
  7  8  2  0  0  0  0
  8 43  1  0  0  0  0
  9  8  1  0  0  0  0
  9 44  1  0  0  0  0
 10  9  2  0  0  0  0
 11 10  1  0  0  0  0
 12 11  1  0  0  0  0
 13 14  2  0  0  0  0
 13 10  1  0  0  0  0
 14  7  1  0  0  0  0
 15 50  1  0  0  0  0
 15 16  1  0  0  0  0
 16 21  1  0  0  0  0
 17 16  2  0  0  0  0
 17 18  1  0  0  0  0
 18 19  2  0  0  0  0
 19 20  1  0  0  0  0
 19 52  1  0  0  0  0
 20 53  1  0  0  0  0
 21 54  1  0  0  0  0
 21 20  2  0  0  0  0
 22 17  1  0  0  0  0
 23 24  1  0  0  0  0
 23 22  1  0  0  0  0
 24 25  1  0  0  0  0
 26 27  1  0  0  0  0
 26 24  2  0  0  0  0
 27 28  2  0  0  0  0
 28 29  1  0  0  0  0
 28 55  1  0  0  0  0
 29 56  1  0  0  0  0
 30 31  1  0  0  0  0
 30 29  2  0  0  0  0
 32 57  1  0  0  0  0
 32 31  1  0  0  0  0
 33 30  1  0  0  0  0
 34 33  2  0  0  0  0
 34 27  1  0  0  0  0
 35 26  1  0  0  0  0
 36 35  2  0  0  0  0
 36 37  1  0  0  0  0
 37 23  2  0  0  0  0
 38 37  1  0  0  0  0
 38 63  1  0  0  0  0
 39 38  2  0  0  0  0
 40 41  2  0  0  0  0
 40 39  1  0  0  0  0
 41 36  1  0  0  0  0
 42  3  1  0  0  0  0
 45 12  1  0  0  0  0
 46 12  1  0  0  0  0
 47 12  1  0  0  0  0
 48 13  1  0  0  0  0
 49 14  1  0  0  0  0
 51 18  1  0  0  0  0
 58 32  1  0  0  0  0
 59 32  1  0  0  0  0
 60 33  1  0  0  0  0
 61 34  1  0  0  0  0
 62 35  1  0  0  0  0
 64 39  1  0  0  0  0
 65 40  1  0  0  0  0
 66 41  1  0  0  0  0
M  END
$$$$
