O=P1(O)OC2=C(CC)C=C3C(CCCC3)=C2C4=C(O1)C(CC)=CC5=C4CCCC5
 OpenBabel09032010373D

 58 62  0  0  0  0  0  0  0  0999 V2000
    1.6002    4.0971    0.5868 O   0  0  0  0  0  0  0  0  0  0  0  0
    0.7036    3.2137   -0.2254 P   0  0  0  0  0  0  0  0  0  0  0  0
   -0.0088    4.0871   -1.3760 O   0  0  0  0  0  0  0  0  0  0  0  0
    1.4443    2.0516   -1.0600 O   0  0  0  0  0  0  0  0  0  0  0  0
    1.7604    0.8956   -0.3883 C   0  0  0  0  0  0  0  0  0  0  0  0
    3.1204    0.5948   -0.2233 C   0  0  0  0  0  0  0  0  0  0  0  0
    4.2172    1.4779   -0.7682 C   0  0  0  0  0  0  0  0  0  0  0  0
    4.8504    2.3412    0.3129 C   0  0  0  0  0  0  0  0  0  0  0  0
    3.4605   -0.5596    0.4827 C   0  0  0  0  0  0  0  0  0  0  0  0
    2.4758   -1.3706    1.0589 C   0  0  0  0  0  0  0  0  0  0  0  0
    1.1068   -1.0660    0.8609 C   0  0  0  0  0  0  0  0  0  0  0  0
    0.0735   -1.8080    1.7014 C   0  0  0  0  0  0  0  0  0  0  0  0
    0.5238   -3.1989    2.1385 C   0  0  0  0  0  0  0  0  0  0  0  0
    1.8833   -3.1150    2.8121 C   0  0  0  0  0  0  0  0  0  0  0  0
    2.9253   -2.5888    1.8333 C   0  0  0  0  0  0  0  0  0  0  0  0
    0.7162    0.0496    0.0548 C   0  0  0  0  0  0  0  0  0  0  0  0
   -0.6461    0.3177   -0.3256 C   0  0  0  0  0  0  0  0  0  0  0  0
   -1.2564    1.5575   -0.0205 C   0  0  0  0  0  0  0  0  0  0  0  0
   -0.5227    2.5516    0.5815 O   0  0  0  0  0  0  0  0  0  0  0  0
   -2.6146    1.8250   -0.2509 C   0  0  0  0  0  0  0  0  0  0  0  0
   -3.2537    3.1285    0.1631 C   0  0  0  0  0  0  0  0  0  0  0  0
   -3.6757    3.1139    1.6247 C   0  0  0  0  0  0  0  0  0  0  0  0
   -3.3907    0.8416   -0.8637 C   0  0  0  0  0  0  0  0  0  0  0  0
   -2.8247   -0.3690   -1.2822 C   0  0  0  0  0  0  0  0  0  0  0  0
   -1.4513   -0.6208   -1.0498 C   0  0  0  0  0  0  0  0  0  0  0  0
   -0.8199   -1.8786   -1.6370 C   0  0  0  0  0  0  0  0  0  0  0  0
   -1.6461   -2.5308   -2.7440 C   0  0  0  0  0  0  0  0  0  0  0  0
   -3.0837   -2.6958   -2.2816 C   0  0  0  0  0  0  0  0  0  0  0  0
   -3.7106   -1.3276   -2.0452 C   0  0  0  0  0  0  0  0  0  0  0  0
    0.4925    4.9122   -1.5076 H   0  0  0  0  0  0  0  0  0  0  0  0
    4.9862    0.8468   -1.2313 H   0  0  0  0  0  0  0  0  0  0  0  0
    3.8395    2.1182   -1.5734 H   0  0  0  0  0  0  0  0  0  0  0  0
    4.1088    2.9869    0.7927 H   0  0  0  0  0  0  0  0  0  0  0  0
    5.6275    2.9790   -0.1201 H   0  0  0  0  0  0  0  0  0  0  0  0
    5.3143    1.7284    1.0931 H   0  0  0  0  0  0  0  0  0  0  0  0
    4.5110   -0.8142    0.6175 H   0  0  0  0  0  0  0  0  0  0  0  0
   -0.8882   -1.9111    1.1972 H   0  0  0  0  0  0  0  0  0  0  0  0
   -0.1125   -1.1963    2.5947 H   0  0  0  0  0  0  0  0  0  0  0  0
    0.5755   -3.8696    1.2718 H   0  0  0  0  0  0  0  0  0  0  0  0
   -0.2111   -3.6216    2.8328 H   0  0  0  0  0  0  0  0  0  0  0  0
    2.1865   -4.1014    3.1804 H   0  0  0  0  0  0  0  0  0  0  0  0
    1.8220   -2.4515    3.6841 H   0  0  0  0  0  0  0  0  0  0  0  0
    3.8419   -2.3616    2.3911 H   0  0  0  0  0  0  0  0  0  0  0  0
    3.1702   -3.3746    1.1074 H   0  0  0  0  0  0  0  0  0  0  0  0
   -4.1303    3.3272   -0.4661 H   0  0  0  0  0  0  0  0  0  0  0  0
   -2.5657    3.9618   -0.0207 H   0  0  0  0  0  0  0  0  0  0  0  0
   -4.3961    2.3125    1.8209 H   0  0  0  0  0  0  0  0  0  0  0  0
   -4.1460    4.0656    1.8917 H   0  0  0  0  0  0  0  0  0  0  0  0
   -2.8175    2.9631    2.2879 H   0  0  0  0  0  0  0  0  0  0  0  0
   -4.4466    1.0312   -1.0515 H   0  0  0  0  0  0  0  0  0  0  0  0
    0.1649   -1.6399   -2.0557 H   0  0  0  0  0  0  0  0  0  0  0  0
   -0.6786   -2.6191   -0.8444 H   0  0  0  0  0  0  0  0  0  0  0  0
   -1.6128   -1.9172   -3.6530 H   0  0  0  0  0  0  0  0  0  0  0  0
   -1.2158   -3.5063   -2.9973 H   0  0  0  0  0  0  0  0  0  0  0  0
   -3.1104   -3.2863   -1.3570 H   0  0  0  0  0  0  0  0  0  0  0  0
   -3.6656   -3.2448   -3.0303 H   0  0  0  0  0  0  0  0  0  0  0  0
   -4.6579   -1.4617   -1.5089 H   0  0  0  0  0  0  0  0  0  0  0  0
   -3.9426   -0.8705   -3.0158 H   0  0  0  0  0  0  0  0  0  0  0  0
  2 19  1  0  0  0  0
  2  1  2  0  0  0  0
  3  2  1  0  0  0  0
  4  5  1  0  0  0  0
  4  2  1  0  0  0  0
  5  6  2  0  0  0  0
  5 16  1  0  0  0  0
  6  9  1  0  0  0  0
  7  6  1  0  0  0  0
  7  8  1  0  0  0  0
  8 33  1  0  0  0  0
  8 35  1  0  0  0  0
  9 36  1  0  0  0  0
  9 10  2  0  0  0  0
 10 15  1  0  0  0  0
 11 10  1  0  0  0  0
 11 12  1  0  0  0  0
 12 13  1  0  0  0  0
 12 38  1  0  0  0  0
 13 14  1  0  0  0  0
 13 40  1  0  0  0  0
 14 41  1  0  0  0  0
 14 42  1  0  0  0  0
 15 43  1  0  0  0  0
 15 14  1  0  0  0  0
 16 11  2  0  0  0  0
 17 18  2  0  0  0  0
 17 16  1  0  0  0  0
 18 19  1  0  0  0  0
 20 18  1  0  0  0  0
 20 21  1  0  0  0  0
 21 22  1  0  0  0  0
 22 47  1  0  0  0  0
 22 48  1  0  0  0  0
 22 49  1  0  0  0  0
 23 20  2  0  0  0  0
 24 25  2  0  0  0  0
 24 23  1  0  0  0  0
 25 17  1  0  0  0  0
 26 25  1  0  0  0  0
 26 52  1  0  0  0  0
 27 28  1  0  0  0  0
 27 26  1  0  0  0  0
 28 29  1  0  0  0  0
 28 55  1  0  0  0  0
 29 57  1  0  0  0  0
 29 24  1  0  0  0  0
 30  3  1  0  0  0  0
 31  7  1  0  0  0  0
 32  7  1  0  0  0  0
 34  8  1  0  0  0  0
 37 12  1  0  0  0  0
 39 13  1  0  0  0  0
 44 15  1  0  0  0  0
 45 21  1  0  0  0  0
 46 21  1  0  0  0  0
 50 23  1  0  0  0  0
 51 26  1  0  0  0  0
 53 27  1  0  0  0  0
 54 27  1  0  0  0  0
 56 28  1  0  0  0  0
 58 29  1  0  0  0  0
M  END
$$$$
