O=P1(O)OC2=C(C3=C(C)C=C(C)C=C3C)C=C4C(C=CC=C4)=C2C5=C(O1)[C@@]([C@@]6=C(C)C=C(C)C=C6C)=CC7=C5C=CC=C7
 OpenBabel09032010383D

 76 82  0  0  0  0  0  0  0  0999 V2000
   -0.5557    1.8106   -2.1718 O   0  0  0  0  0  0  0  0  0  0  0  0
    0.0060    1.3919   -0.8496 P   0  0  0  0  0  0  0  0  0  0  0  0
    0.7859    2.6055   -0.1377 O   0  0  0  0  0  0  0  0  0  0  0  0
   -1.0452    0.9134    0.2717 O   0  0  0  0  0  0  0  0  0  0  0  0
   -1.5490   -0.3637    0.1624 C   0  0  0  0  0  0  0  0  0  0  0  0
   -2.9147   -0.4852   -0.1492 C   0  0  0  0  0  0  0  0  0  0  0  0
   -3.7878    0.6897   -0.3517 C   0  0  0  0  0  0  0  0  0  0  0  0
   -4.3063    1.4018    0.7596 C   0  0  0  0  0  0  0  0  0  0  0  0
   -3.9672    1.0144    2.1770 C   0  0  0  0  0  0  0  0  0  0  0  0
   -5.1342    2.5183    0.5522 C   0  0  0  0  0  0  0  0  0  0  0  0
   -5.4886    2.9263   -0.7354 C   0  0  0  0  0  0  0  0  0  0  0  0
   -6.3517    4.1354   -0.9407 C   0  0  0  0  0  0  0  0  0  0  0  0
   -4.9788    2.2260   -1.8308 C   0  0  0  0  0  0  0  0  0  0  0  0
   -4.1296    1.1191   -1.6579 C   0  0  0  0  0  0  0  0  0  0  0  0
   -3.6453    0.3966   -2.8898 C   0  0  0  0  0  0  0  0  0  0  0  0
   -3.4515   -1.7695   -0.2564 C   0  0  0  0  0  0  0  0  0  0  0  0
   -2.6552   -2.9062   -0.0993 C   0  0  0  0  0  0  0  0  0  0  0  0
   -1.2784   -2.7730    0.2247 C   0  0  0  0  0  0  0  0  0  0  0  0
   -0.5281   -3.9757    0.2724 C   0  0  0  0  0  0  0  0  0  0  0  0
   -1.1080   -5.2329    0.0809 C   0  0  0  0  0  0  0  0  0  0  0  0
   -2.4638   -5.3331   -0.1850 C   0  0  0  0  0  0  0  0  0  0  0  0
   -3.2304   -4.1754   -0.2809 C   0  0  0  0  0  0  0  0  0  0  0  0
   -0.7029   -1.4668    0.4359 C   0  0  0  0  0  0  0  0  0  0  0  0
    0.6446   -1.2466    0.9263 C   0  0  0  0  0  0  0  0  0  0  0  0
    1.5365   -0.3969    0.2249 C   0  0  0  0  0  0  0  0  0  0  0  0
    1.1171    0.2308   -0.9270 O   0  0  0  0  0  0  0  0  0  0  0  0
    2.8883   -0.2201    0.5762 C   0  0  0  0  0  0  0  0  0  0  0  0
    3.7912    0.6710   -0.1842 C   0  0  0  0  0  0  0  0  0  0  0  0
    4.1175    1.9582    0.3155 C   0  0  0  0  0  0  0  0  0  0  0  0
    3.6152    2.4500    1.6511 C   0  0  0  0  0  0  0  0  0  0  0  0
    4.9736    2.7985   -0.4171 C   0  0  0  0  0  0  0  0  0  0  0  0
    5.5072    2.3957   -1.6428 C   0  0  0  0  0  0  0  0  0  0  0  0
    6.3817    3.3224   -2.4345 C   0  0  0  0  0  0  0  0  0  0  0  0
    5.1748    1.1353   -2.1437 C   0  0  0  0  0  0  0  0  0  0  0  0
    4.3434    0.2602   -1.4230 C   0  0  0  0  0  0  0  0  0  0  0  0
    4.0408   -1.0909   -2.0207 C   0  0  0  0  0  0  0  0  0  0  0  0
    3.3720   -0.9038    1.6928 C   0  0  0  0  0  0  0  0  0  0  0  0
    2.5337   -1.6978    2.4778 C   0  0  0  0  0  0  0  0  0  0  0  0
    1.1660   -1.8571    2.1265 C   0  0  0  0  0  0  0  0  0  0  0  0
    0.3698   -2.5900    3.0442 C   0  0  0  0  0  0  0  0  0  0  0  0
    0.8978   -3.1885    4.1917 C   0  0  0  0  0  0  0  0  0  0  0  0
    2.2467   -3.0592    4.4775 C   0  0  0  0  0  0  0  0  0  0  0  0
    3.0571   -2.3116    3.6287 C   0  0  0  0  0  0  0  0  0  0  0  0
    1.3327    3.0758   -0.7931 H   0  0  0  0  0  0  0  0  0  0  0  0
   -4.1287   -0.0560    2.3391 H   0  0  0  0  0  0  0  0  0  0  0  0
   -4.6032    1.5414    2.8967 H   0  0  0  0  0  0  0  0  0  0  0  0
   -2.9272    1.2687    2.4026 H   0  0  0  0  0  0  0  0  0  0  0  0
   -5.5104    3.0750    1.4087 H   0  0  0  0  0  0  0  0  0  0  0  0
   -6.9445    4.0418   -1.8567 H   0  0  0  0  0  0  0  0  0  0  0  0
   -7.0556    4.2588   -0.1109 H   0  0  0  0  0  0  0  0  0  0  0  0
   -5.7286    5.0321   -1.0124 H   0  0  0  0  0  0  0  0  0  0  0  0
   -5.2391    2.5487   -2.8375 H   0  0  0  0  0  0  0  0  0  0  0  0
   -2.5976    0.0971   -2.7970 H   0  0  0  0  0  0  0  0  0  0  0  0
   -4.2596   -0.4920   -3.0658 H   0  0  0  0  0  0  0  0  0  0  0  0
   -3.7098    1.0384   -3.7752 H   0  0  0  0  0  0  0  0  0  0  0  0
   -4.5098   -1.8744   -0.4943 H   0  0  0  0  0  0  0  0  0  0  0  0
    0.5455   -3.9490    0.4510 H   0  0  0  0  0  0  0  0  0  0  0  0
   -0.4924   -6.1267    0.1356 H   0  0  0  0  0  0  0  0  0  0  0  0
   -2.9228   -6.3062   -0.3353 H   0  0  0  0  0  0  0  0  0  0  0  0
   -4.2891   -4.2723   -0.5152 H   0  0  0  0  0  0  0  0  0  0  0  0
    2.5710    2.1729    1.8204 H   0  0  0  0  0  0  0  0  0  0  0  0
    3.6609    3.5430    1.7103 H   0  0  0  0  0  0  0  0  0  0  0  0
    4.2325    2.0376    2.4554 H   0  0  0  0  0  0  0  0  0  0  0  0
    5.2286    3.7811   -0.0228 H   0  0  0  0  0  0  0  0  0  0  0  0
    7.1041    2.7602   -3.0356 H   0  0  0  0  0  0  0  0  0  0  0  0
    5.7686    3.9368   -3.1009 H   0  0  0  0  0  0  0  0  0  0  0  0
    6.9542    3.9808   -1.7726 H   0  0  0  0  0  0  0  0  0  0  0  0
    5.5757    0.8227   -3.1068 H   0  0  0  0  0  0  0  0  0  0  0  0
    3.0327   -1.1019   -2.4453 H   0  0  0  0  0  0  0  0  0  0  0  0
    4.7461   -1.3365   -2.8223 H   0  0  0  0  0  0  0  0  0  0  0  0
    4.1328   -1.8826   -1.2704 H   0  0  0  0  0  0  0  0  0  0  0  0
    4.4194   -0.7813    1.9675 H   0  0  0  0  0  0  0  0  0  0  0  0
   -0.7015   -2.6967    2.8831 H   0  0  0  0  0  0  0  0  0  0  0  0
    0.2465   -3.7470    4.8587 H   0  0  0  0  0  0  0  0  0  0  0  0
    2.6652   -3.5202    5.3678 H   0  0  0  0  0  0  0  0  0  0  0  0
    4.1090   -2.1971    3.8849 H   0  0  0  0  0  0  0  0  0  0  0  0
  1  2  2  0  0  0  0
  2  3  1  0  0  0  0
  2  4  1  0  0  0  0
  5  4  1  0  0  0  0
  5 23  2  0  0  0  0
  6  5  1  0  0  0  0
  7  6  1  0  0  0  0
  7  8  2  0  0  0  0
  8  9  1  0  0  0  0
  9 45  1  0  0  0  0
  9 47  1  0  0  0  0
  9 46  1  0  0  0  0
 10  8  1  0  0  0  0
 10 48  1  0  0  0  0
 11 10  2  0  0  0  0
 12 11  1  0  0  0  0
 12 50  1  0  0  0  0
 13 14  2  0  0  0  0
 13 11  1  0  0  0  0
 14  7  1  0  0  0  0
 15 53  1  0  0  0  0
 15 14  1  0  0  0  0
 16  6  2  0  0  0  0
 16 17  1  0  0  0  0
 17 18  2  0  0  0  0
 18 19  1  0  0  0  0
 18 23  1  0  0  0  0
 19 57  1  0  0  0  0
 20 58  1  0  0  0  0
 20 19  2  0  0  0  0
 21 20  1  0  0  0  0
 22 21  2  0  0  0  0
 22 17  1  0  0  0  0
 23 24  1  0  0  0  0
 24 39  2  0  0  0  0
 25 27  2  0  0  0  0
 25 24  1  0  0  0  0
 26  2  1  0  0  0  0
 26 25  1  0  0  0  0
 27 37  1  0  0  0  0
 28 29  1  0  0  0  0
 28 27  1  0  0  0  0
 29 30  1  0  0  0  0
 30 62  1  0  0  0  0
 30 61  1  0  0  0  0
 30 63  1  0  0  0  0
 31 64  1  0  0  0  0
 31 29  2  0  0  0  0
 32 31  1  0  0  0  0
 33 67  1  0  0  0  0
 33 32  1  0  0  0  0
 34 32  2  0  0  0  0
 34 35  1  0  0  0  0
 35 28  2  0  0  0  0
 36 35  1  0  0  0  0
 36 71  1  0  0  0  0
 37 72  1  0  0  0  0
 37 38  2  0  0  0  0
 38 43  1  0  0  0  0
 39 38  1  0  0  0  0
 39 40  1  0  0  0  0
 40 41  2  0  0  0  0
 41 42  1  0  0  0  0
 41 74  1  0  0  0  0
 42 75  1  0  0  0  0
 43 76  1  0  0  0  0
 43 42  2  0  0  0  0
 44  3  1  0  0  0  0
 49 12  1  0  0  0  0
 51 12  1  0  0  0  0
 52 13  1  0  0  0  0
 54 15  1  0  0  0  0
 55 15  1  0  0  0  0
 56 16  1  0  0  0  0
 59 21  1  0  0  0  0
 60 22  1  0  0  0  0
 65 33  1  0  0  0  0
 66 33  1  0  0  0  0
 68 34  1  0  0  0  0
 69 36  1  0  0  0  0
 70 36  1  0  0  0  0
 73 40  1  0  0  0  0
M  END
$$$$
