O=P1(O)OC2=C(C3=C(C(C)C)C=C(C4=CC=C(C(C)(C)C)C=C4)C=C3C(C)C)C=C5C(C=CC=C5)=[C@]2[C@]6=C(O1)C(C7=C(C(C)C)C=C(C8=CC=C(C(C)(C)C)C=C8)C=C7C(C)C)=CC9=C6C=CC=C9
 OpenBabel09032010373D

138146  0  0  0  0  0  0  0  0999 V2000
    0.1703   -0.1836    1.4181 O   0  0  0  0  0  0  0  0  0  0  0  0
   -0.1721   -0.6844    0.0522 P   0  0  0  0  0  0  0  0  0  0  0  0
   -0.7583    0.4846   -0.8807 O   0  0  0  0  0  0  0  0  0  0  0  0
    1.0280   -1.3062   -0.8207 O   0  0  0  0  0  0  0  0  0  0  0  0
    1.4351   -2.5876   -0.5192 C   0  0  0  0  0  0  0  0  0  0  0  0
    2.7285   -2.7343    0.0161 C   0  0  0  0  0  0  0  0  0  0  0  0
    3.6221   -1.5807    0.2626 C   0  0  0  0  0  0  0  0  0  0  0  0
    3.7844   -1.0532    1.5775 C   0  0  0  0  0  0  0  0  0  0  0  0
    3.0615   -1.6423    2.7931 C   0  0  0  0  0  0  0  0  0  0  0  0
    3.9843   -2.5996    3.5553 C   0  0  0  0  0  0  0  0  0  0  0  0
    2.5173   -0.5826    3.7642 C   0  0  0  0  0  0  0  0  0  0  0  0
    4.6617    0.0327    1.7755 C   0  0  0  0  0  0  0  0  0  0  0  0
    5.3594    0.6341    0.7230 C   0  0  0  0  0  0  0  0  0  0  0  0
    6.2375    1.7890    0.9606 C   0  0  0  0  0  0  0  0  0  0  0  0
    7.5783    1.7772    0.5615 C   0  0  0  0  0  0  0  0  0  0  0  0
    8.4087    2.8807    0.7911 C   0  0  0  0  0  0  0  0  0  0  0  0
    7.9335    4.0424    1.4273 C   0  0  0  0  0  0  0  0  0  0  0  0
    8.8750    5.2363    1.6620 C   0  0  0  0  0  0  0  0  0  0  0  0
   10.0636    4.7947    2.5430 C   0  0  0  0  0  0  0  0  0  0  0  0
    9.4097    5.7499    0.3078 C   0  0  0  0  0  0  0  0  0  0  0  0
    8.2011    6.4331    2.3707 C   0  0  0  0  0  0  0  0  0  0  0  0
    6.5875    4.0471    1.8229 C   0  0  0  0  0  0  0  0  0  0  0  0
    5.7569    2.9418    1.5942 C   0  0  0  0  0  0  0  0  0  0  0  0
    5.1910    0.1055   -0.5599 C   0  0  0  0  0  0  0  0  0  0  0  0
    4.3468   -0.9954   -0.8150 C   0  0  0  0  0  0  0  0  0  0  0  0
    4.2503   -1.5177   -2.2506 C   0  0  0  0  0  0  0  0  0  0  0  0
    5.6094   -2.0072   -2.7640 C   0  0  0  0  0  0  0  0  0  0  0  0
    3.6566   -0.4674   -3.1951 C   0  0  0  0  0  0  0  0  0  0  0  0
    3.1838   -4.0270    0.2826 C   0  0  0  0  0  0  0  0  0  0  0  0
    2.3626   -5.1408    0.0993 C   0  0  0  0  0  0  0  0  0  0  0  0
    1.0576   -4.9823   -0.4371 C   0  0  0  0  0  0  0  0  0  0  0  0
    0.2594   -6.1537   -0.4930 C   0  0  0  0  0  0  0  0  0  0  0  0
    0.7387   -7.4106   -0.1139 C   0  0  0  0  0  0  0  0  0  0  0  0
    2.0354   -7.5407    0.3554 C   0  0  0  0  0  0  0  0  0  0  0  0
    2.8395   -6.4105    0.4670 C   0  0  0  0  0  0  0  0  0  0  0  0
    0.5908   -3.6801   -0.8465 C   0  0  0  0  0  0  0  0  0  0  0  0
   -0.6431   -3.4611   -1.5815 C   0  0  0  0  0  0  0  0  0  0  0  0
   -1.5824   -2.4974   -1.1410 C   0  0  0  0  0  0  0  0  0  0  0  0
   -1.3363   -1.7907    0.0148 O   0  0  0  0  0  0  0  0  0  0  0  0
   -2.8428   -2.2946   -1.7388 C   0  0  0  0  0  0  0  0  0  0  0  0
   -3.7713   -1.2449   -1.2611 C   0  0  0  0  0  0  0  0  0  0  0  0
   -3.8947   -0.0129   -1.9745 C   0  0  0  0  0  0  0  0  0  0  0  0
   -3.1849    0.2417   -3.3106 C   0  0  0  0  0  0  0  0  0  0  0  0
   -4.1427   -0.0212   -4.4787 C   0  0  0  0  0  0  0  0  0  0  0  0
   -2.5949    1.6539   -3.4539 C   0  0  0  0  0  0  0  0  0  0  0  0
   -4.7231    0.9985   -1.4508 C   0  0  0  0  0  0  0  0  0  0  0  0
   -5.4145    0.8475   -0.2448 C   0  0  0  0  0  0  0  0  0  0  0  0
   -6.2041    1.9538    0.3114 C   0  0  0  0  0  0  0  0  0  0  0  0
   -5.6119    3.1992    0.5577 C   0  0  0  0  0  0  0  0  0  0  0  0
   -6.3481    4.2607    1.0970 C   0  0  0  0  0  0  0  0  0  0  0  0
   -7.7081    4.1187    1.4098 C   0  0  0  0  0  0  0  0  0  0  0  0
   -8.5498    5.2621    2.0028 C   0  0  0  0  0  0  0  0  0  0  0  0
   -9.1100    4.8356    3.3770 C   0  0  0  0  0  0  0  0  0  0  0  0
   -7.7595    6.5726    2.2184 C   0  0  0  0  0  0  0  0  0  0  0  0
   -9.7240    5.5881    1.0546 C   0  0  0  0  0  0  0  0  0  0  0  0
   -8.2956    2.8645    1.1591 C   0  0  0  0  0  0  0  0  0  0  0  0
   -7.5588    1.8024    0.6217 C   0  0  0  0  0  0  0  0  0  0  0  0
   -5.3170   -0.3778    0.4205 C   0  0  0  0  0  0  0  0  0  0  0  0
   -4.5189   -1.4339   -0.0645 C   0  0  0  0  0  0  0  0  0  0  0  0
   -4.5010   -2.7505    0.7170 C   0  0  0  0  0  0  0  0  0  0  0  0
   -4.0083   -2.5622    2.1561 C   0  0  0  0  0  0  0  0  0  0  0  0
   -5.8803   -3.4192    0.6991 C   0  0  0  0  0  0  0  0  0  0  0  0
   -3.1966   -3.1101   -2.8127 C   0  0  0  0  0  0  0  0  0  0  0  0
   -2.2930   -4.0253   -3.3545 C   0  0  0  0  0  0  0  0  0  0  0  0
   -1.0037   -4.1854   -2.7778 C   0  0  0  0  0  0  0  0  0  0  0  0
   -0.1144   -5.0435   -3.4746 C   0  0  0  0  0  0  0  0  0  0  0  0
   -0.4929   -5.7571   -4.6151 C   0  0  0  0  0  0  0  0  0  0  0  0
   -1.7768   -5.6236   -5.1168 C   0  0  0  0  0  0  0  0  0  0  0  0
   -2.6684   -4.7565   -4.4936 C   0  0  0  0  0  0  0  0  0  0  0  0
   -1.4416    0.9861   -0.3983 H   0  0  0  0  0  0  0  0  0  0  0  0
    2.1857   -2.2068    2.4550 H   0  0  0  0  0  0  0  0  0  0  0  0
    3.4498   -3.0689    4.3884 H   0  0  0  0  0  0  0  0  0  0  0  0
    4.3611   -3.3987    2.9108 H   0  0  0  0  0  0  0  0  0  0  0  0
    4.8541   -2.0758    3.9682 H   0  0  0  0  0  0  0  0  0  0  0  0
    3.3146   -0.1011    4.3408 H   0  0  0  0  0  0  0  0  0  0  0  0
    1.8358   -1.0464    4.4862 H   0  0  0  0  0  0  0  0  0  0  0  0
    1.9673    0.2028    3.2382 H   0  0  0  0  0  0  0  0  0  0  0  0
    4.8163    0.4223    2.7799 H   0  0  0  0  0  0  0  0  0  0  0  0
    7.9948    0.8977    0.0747 H   0  0  0  0  0  0  0  0  0  0  0  0
    9.4434    2.8143    0.4620 H   0  0  0  0  0  0  0  0  0  0  0  0
   10.6688    4.0176    2.0634 H   0  0  0  0  0  0  0  0  0  0  0  0
   10.7330    5.6367    2.7547 H   0  0  0  0  0  0  0  0  0  0  0  0
    9.7159    4.3952    3.5031 H   0  0  0  0  0  0  0  0  0  0  0  0
    8.5873    6.0441   -0.3551 H   0  0  0  0  0  0  0  0  0  0  0  0
   10.0571    6.6241    0.4443 H   0  0  0  0  0  0  0  0  0  0  0  0
   10.0013    4.9928   -0.2184 H   0  0  0  0  0  0  0  0  0  0  0  0
    7.3633    6.8293    1.7850 H   0  0  0  0  0  0  0  0  0  0  0  0
    8.9104    7.2568    2.5157 H   0  0  0  0  0  0  0  0  0  0  0  0
    7.8239    6.1550    3.3617 H   0  0  0  0  0  0  0  0  0  0  0  0
    6.1431    4.9070    2.3159 H   0  0  0  0  0  0  0  0  0  0  0  0
    4.7161    2.9959    1.9090 H   0  0  0  0  0  0  0  0  0  0  0  0
    5.7257    0.5716   -1.3862 H   0  0  0  0  0  0  0  0  0  0  0  0
    3.5859   -2.3851   -2.2974 H   0  0  0  0  0  0  0  0  0  0  0  0
    5.5030   -2.4625   -3.7548 H   0  0  0  0  0  0  0  0  0  0  0  0
    6.0312   -2.7626   -2.0918 H   0  0  0  0  0  0  0  0  0  0  0  0
    6.3368   -1.1933   -2.8524 H   0  0  0  0  0  0  0  0  0  0  0  0
    2.6832   -0.1187   -2.8334 H   0  0  0  0  0  0  0  0  0  0  0  0
    4.3065    0.4078   -3.3000 H   0  0  0  0  0  0  0  0  0  0  0  0
    3.5098   -0.8906   -4.1948 H   0  0  0  0  0  0  0  0  0  0  0  0
    4.1939   -4.1556    0.6695 H   0  0  0  0  0  0  0  0  0  0  0  0
   -0.7749   -6.1009   -0.8287 H   0  0  0  0  0  0  0  0  0  0  0  0
    0.0914   -8.2808   -0.1840 H   0  0  0  0  0  0  0  0  0  0  0  0
    2.4155   -8.5143    0.6524 H   0  0  0  0  0  0  0  0  0  0  0  0
    3.8465   -6.5276    0.8638 H   0  0  0  0  0  0  0  0  0  0  0  0
   -2.3319   -0.4385   -3.4046 H   0  0  0  0  0  0  0  0  0  0  0  0
   -4.9828    0.6827   -4.4747 H   0  0  0  0  0  0  0  0  0  0  0  0
   -3.6215    0.0857   -5.4363 H   0  0  0  0  0  0  0  0  0  0  0  0
   -4.5637   -1.0297   -4.4404 H   0  0  0  0  0  0  0  0  0  0  0  0
   -1.9513    1.7053   -4.3395 H   0  0  0  0  0  0  0  0  0  0  0  0
   -1.9906    1.9314   -2.5864 H   0  0  0  0  0  0  0  0  0  0  0  0
   -3.3704    2.4172   -3.5783 H   0  0  0  0  0  0  0  0  0  0  0  0
   -4.8449    1.9331   -1.9956 H   0  0  0  0  0  0  0  0  0  0  0  0
   -4.5565    3.3542    0.3422 H   0  0  0  0  0  0  0  0  0  0  0  0
   -5.8205    5.1952    1.2652 H   0  0  0  0  0  0  0  0  0  0  0  0
   -8.3010    4.5672    4.0667 H   0  0  0  0  0  0  0  0  0  0  0  0
   -9.6861    5.6465    3.8379 H   0  0  0  0  0  0  0  0  0  0  0  0
   -9.7784    3.9709    3.3020 H   0  0  0  0  0  0  0  0  0  0  0  0
   -6.9244    6.4304    2.9142 H   0  0  0  0  0  0  0  0  0  0  0  0
   -8.4006    7.3556    2.6410 H   0  0  0  0  0  0  0  0  0  0  0  0
   -7.3566    6.9606    1.2756 H   0  0  0  0  0  0  0  0  0  0  0  0
  -10.4052    4.7391    0.9312 H   0  0  0  0  0  0  0  0  0  0  0  0
  -10.3206    6.4244    1.4373 H   0  0  0  0  0  0  0  0  0  0  0  0
   -9.3607    5.8660    0.0581 H   0  0  0  0  0  0  0  0  0  0  0  0
   -9.3467    2.6922    1.3793 H   0  0  0  0  0  0  0  0  0  0  0  0
   -8.0601    0.8542    0.4390 H   0  0  0  0  0  0  0  0  0  0  0  0
   -5.8673   -0.5072    1.3516 H   0  0  0  0  0  0  0  0  0  0  0  0
   -3.8156   -3.4623    0.2480 H   0  0  0  0  0  0  0  0  0  0  0  0
   -4.6998   -1.9604    2.7551 H   0  0  0  0  0  0  0  0  0  0  0  0
   -3.0314   -2.0681    2.1781 H   0  0  0  0  0  0  0  0  0  0  0  0
   -3.9036   -3.5326    2.6536 H   0  0  0  0  0  0  0  0  0  0  0  0
   -6.2261   -3.5730   -0.3293 H   0  0  0  0  0  0  0  0  0  0  0  0
   -6.6355   -2.8209    1.2200 H   0  0  0  0  0  0  0  0  0  0  0  0
   -5.8386   -4.3985    1.1883 H   0  0  0  0  0  0  0  0  0  0  0  0
   -4.1839   -2.9941   -3.2565 H   0  0  0  0  0  0  0  0  0  0  0  0
    0.9147   -5.1622   -3.1397 H   0  0  0  0  0  0  0  0  0  0  0  0
    0.2231   -6.4100   -5.1072 H   0  0  0  0  0  0  0  0  0  0  0  0
   -2.0791   -6.1740   -6.0031 H   0  0  0  0  0  0  0  0  0  0  0  0
   -3.6627   -4.6403   -4.9215 H   0  0  0  0  0  0  0  0  0  0  0  0
  2  1  2  0  0  0  0
  3 70  1  0  0  0  0
  3  2  1  0  0  0  0
  4  5  1  0  0  0  0
  4  2  1  0  0  0  0
  5  6  1  0  0  0  0
  6  7  1  0  0  0  0
  6 29  2  0  0  0  0
  7  8  2  0  0  0  0
  8 12  1  0  0  0  0
  8  9  1  0  0  0  0
  9 10  1  0  0  0  0
  9 11  1  0  0  0  0
 10 74  1  0  0  0  0
 10 72  1  0  0  0  0
 11 75  1  0  0  0  0
 11 76  1  0  0  0  0
 12 78  1  0  0  0  0
 13 14  1  0  0  0  0
 13 12  2  0  0  0  0
 14 23  2  0  0  0  0
 15 16  2  0  0  0  0
 15 14  1  0  0  0  0
 16 17  1  0  0  0  0
 17 18  1  0  0  0  0
 17 22  2  0  0  0  0
 18 21  1  0  0  0  0
 18 19  1  0  0  0  0
 19 82  1  0  0  0  0
 19 83  1  0  0  0  0
 20 85  1  0  0  0  0
 20 18  1  0  0  0  0
 21 88  1  0  0  0  0
 21 89  1  0  0  0  0
 22 90  1  0  0  0  0
 23 22  1  0  0  0  0
 23 91  1  0  0  0  0
 24 13  1  0  0  0  0
 25 24  2  0  0  0  0
 25  7  1  0  0  0  0
 26 25  1  0  0  0  0
 27 26  1  0  0  0  0
 27 95  1  0  0  0  0
 28 97  1  0  0  0  0
 28 26  1  0  0  0  0
 29100  1  0  0  0  0
 30 29  1  0  0  0  0
 30 35  2  0  0  0  0
 31 30  1  0  0  0  0
 32 31  2  0  0  0  0
 32 33  1  0  0  0  0
 33 34  2  0  0  0  0
 34 35  1  0  0  0  0
 34103  1  0  0  0  0
 35104  1  0  0  0  0
 36  5  2  0  0  0  0
 36 31  1  0  0  0  0
 37 38  2  0  0  0  0
 37 36  1  0  0  0  0
 38 39  1  0  0  0  0
 39  2  1  0  0  0  0
 40 41  1  0  0  0  0
 40 38  1  0  0  0  0
 41 59  2  0  0  0  0
 42 46  2  0  0  0  0
 42 41  1  0  0  0  0
 43 42  1  0  0  0  0
 44106  1  0  0  0  0
 44108  1  0  0  0  0
 44 43  1  0  0  0  0
 45 43  1  0  0  0  0
 45110  1  0  0  0  0
 46 47  1  0  0  0  0
 47 48  1  0  0  0  0
 47 58  2  0  0  0  0
 48 49  2  0  0  0  0
 48 57  1  0  0  0  0
 49 50  1  0  0  0  0
 50114  1  0  0  0  0
 50 51  2  0  0  0  0
 51 52  1  0  0  0  0
 52 54  1  0  0  0  0
 52 53  1  0  0  0  0
 53116  1  0  0  0  0
 53115  1  0  0  0  0
 54119  1  0  0  0  0
 54118  1  0  0  0  0
 55122  1  0  0  0  0
 55 52  1  0  0  0  0
 56124  1  0  0  0  0
 56 51  1  0  0  0  0
 57 56  2  0  0  0  0
 58126  1  0  0  0  0
 59 58  1  0  0  0  0
 59 60  1  0  0  0  0
 60 61  1  0  0  0  0
 61129  1  0  0  0  0
 61130  1  0  0  0  0
 61128  1  0  0  0  0
 62 60  1  0  0  0  0
 62133  1  0  0  0  0
 62132  1  0  0  0  0
 63 40  2  0  0  0  0
 64 63  1  0  0  0  0
 64 65  1  0  0  0  0
 65 37  1  0  0  0  0
 66135  1  0  0  0  0
 66 65  2  0  0  0  0
 67 66  1  0  0  0  0
 68 67  2  0  0  0  0
 68 69  1  0  0  0  0
 69 64  2  0  0  0  0
 71  9  1  0  0  0  0
 73 10  1  0  0  0  0
 77 11  1  0  0  0  0
 79 15  1  0  0  0  0
 80 16  1  0  0  0  0
 81 19  1  0  0  0  0
 84 20  1  0  0  0  0
 86 20  1  0  0  0  0
 87 21  1  0  0  0  0
 92 24  1  0  0  0  0
 93 26  1  0  0  0  0
 94 27  1  0  0  0  0
 96 27  1  0  0  0  0
 98 28  1  0  0  0  0
 99 28  1  0  0  0  0
101 32  1  0  0  0  0
102 33  1  0  0  0  0
105 43  1  0  0  0  0
107 44  1  0  0  0  0
109 45  1  0  0  0  0
111 45  1  0  0  0  0
112 46  1  0  0  0  0
113 49  1  0  0  0  0
117 53  1  0  0  0  0
120 54  1  0  0  0  0
121 55  1  0  0  0  0
123 55  1  0  0  0  0
125 57  1  0  0  0  0
127 60  1  0  0  0  0
131 62  1  0  0  0  0
134 63  1  0  0  0  0
136 67  1  0  0  0  0
137 68  1  0  0  0  0
138 69  1  0  0  0  0
M  END
$$$$
