O=P1(O)OC2=C(C3=C(C4=CC(C=CC=C5)=C5C=C4)C=CC=C3)C=C6C(CCCC6)=C2C7=C(O1)C(C8=CC=CC=C8C9=CC=C(C=CC=C%10)C%10=C9)=CC%11=C7CCCC%11
 OpenBabel09032010383D

 98108  0  0  0  0  0  0  0  0999 V2000
   -1.8133   -2.5982   -1.0252 O   0  0  0  0  0  0  0  0  0  0  0  0
   -0.6890   -2.0079   -1.8169 P   0  0  0  0  0  0  0  0  0  0  0  0
   -0.2492   -2.9285   -3.0662 O   0  0  0  0  0  0  0  0  0  0  0  0
    0.6886   -1.8372   -1.0088 O   0  0  0  0  0  0  0  0  0  0  0  0
    1.7094   -1.0600   -1.5016 C   0  0  0  0  0  0  0  0  0  0  0  0
    2.9392   -1.7033   -1.7475 C   0  0  0  0  0  0  0  0  0  0  0  0
    3.1765   -3.1380   -1.4557 C   0  0  0  0  0  0  0  0  0  0  0  0
    3.1150   -3.6805   -0.1421 C   0  0  0  0  0  0  0  0  0  0  0  0
    2.7635   -2.8644    1.0355 C   0  0  0  0  0  0  0  0  0  0  0  0
    1.5441   -3.0801    1.7014 C   0  0  0  0  0  0  0  0  0  0  0  0
    1.1130   -2.2346    2.7344 C   0  0  0  0  0  0  0  0  0  0  0  0
   -0.1309   -2.4221    3.3567 C   0  0  0  0  0  0  0  0  0  0  0  0
   -0.5695   -1.5413    4.3442 C   0  0  0  0  0  0  0  0  0  0  0  0
    0.2361   -0.4748    4.7322 C   0  0  0  0  0  0  0  0  0  0  0  0
    1.4861   -0.2897    4.1401 C   0  0  0  0  0  0  0  0  0  0  0  0
    1.9368   -1.1597    3.1357 C   0  0  0  0  0  0  0  0  0  0  0  0
    3.1797   -0.9773    2.5121 C   0  0  0  0  0  0  0  0  0  0  0  0
    3.5869   -1.8199    1.4745 C   0  0  0  0  0  0  0  0  0  0  0  0
    3.3700   -5.0545    0.0407 C   0  0  0  0  0  0  0  0  0  0  0  0
    3.6789   -5.8845   -1.0364 C   0  0  0  0  0  0  0  0  0  0  0  0
    3.7375   -5.3579   -2.3203 C   0  0  0  0  0  0  0  0  0  0  0  0
    3.4915   -4.0003   -2.5271 C   0  0  0  0  0  0  0  0  0  0  0  0
    3.9787   -0.9334   -2.2806 C   0  0  0  0  0  0  0  0  0  0  0  0
    3.8093    0.4249   -2.5768 C   0  0  0  0  0  0  0  0  0  0  0  0
    2.5724    1.0525   -2.3025 C   0  0  0  0  0  0  0  0  0  0  0  0
    2.3650    2.5002   -2.7358 C   0  0  0  0  0  0  0  0  0  0  0  0
    3.3701    2.9867   -3.7781 C   0  0  0  0  0  0  0  0  0  0  0  0
    4.7813    2.6558   -3.3236 C   0  0  0  0  0  0  0  0  0  0  0  0
    4.9587    1.1447   -3.2452 C   0  0  0  0  0  0  0  0  0  0  0  0
    1.5088    0.3314   -1.6704 C   0  0  0  0  0  0  0  0  0  0  0  0
    0.2886    0.9630   -1.2416 C   0  0  0  0  0  0  0  0  0  0  0  0
   -0.9591    0.5322   -1.7532 C   0  0  0  0  0  0  0  0  0  0  0  0
   -0.9852   -0.5975   -2.5391 O   0  0  0  0  0  0  0  0  0  0  0  0
   -2.1719    1.2197   -1.5487 C   0  0  0  0  0  0  0  0  0  0  0  0
   -3.4489    0.7894   -2.1695 C   0  0  0  0  0  0  0  0  0  0  0  0
   -3.5210    0.7063   -3.5773 C   0  0  0  0  0  0  0  0  0  0  0  0
   -4.6899    0.3150   -4.2312 C   0  0  0  0  0  0  0  0  0  0  0  0
   -5.8218    0.0017   -3.4920 C   0  0  0  0  0  0  0  0  0  0  0  0
   -5.7840    0.0857   -2.1011 C   0  0  0  0  0  0  0  0  0  0  0  0
   -4.6139    0.4792   -1.4172 C   0  0  0  0  0  0  0  0  0  0  0  0
   -4.6677    0.5509    0.0550 C   0  0  0  0  0  0  0  0  0  0  0  0
   -5.4152    1.5541    0.6897 C   0  0  0  0  0  0  0  0  0  0  0  0
   -5.4682    1.6374    2.0833 C   0  0  0  0  0  0  0  0  0  0  0  0
   -4.7805    0.7121    2.8804 C   0  0  0  0  0  0  0  0  0  0  0  0
   -4.8236    0.7795    4.2824 C   0  0  0  0  0  0  0  0  0  0  0  0
   -4.1391   -0.1539    5.0623 C   0  0  0  0  0  0  0  0  0  0  0  0
   -3.4040   -1.1650    4.4508 C   0  0  0  0  0  0  0  0  0  0  0  0
   -3.3507   -1.2440    3.0583 C   0  0  0  0  0  0  0  0  0  0  0  0
   -4.0324   -0.3125    2.2588 C   0  0  0  0  0  0  0  0  0  0  0  0
   -3.9885   -0.3802    0.8552 C   0  0  0  0  0  0  0  0  0  0  0  0
   -2.1286    2.3632   -0.7459 C   0  0  0  0  0  0  0  0  0  0  0  0
   -0.9560    2.7552   -0.0874 C   0  0  0  0  0  0  0  0  0  0  0  0
    0.2489    2.0522   -0.3187 C   0  0  0  0  0  0  0  0  0  0  0  0
    1.4352    2.3294    0.5971 C   0  0  0  0  0  0  0  0  0  0  0  0
    1.4336    3.7336    1.1944 C   0  0  0  0  0  0  0  0  0  0  0  0
    0.0934    4.0153    1.8535 C   0  0  0  0  0  0  0  0  0  0  0  0
   -1.0243    3.9621    0.8197 C   0  0  0  0  0  0  0  0  0  0  0  0
    0.5232   -2.5564   -3.5230 H   0  0  0  0  0  0  0  0  0  0  0  0
    0.8906   -3.8828    1.3616 H   0  0  0  0  0  0  0  0  0  0  0  0
   -0.7697   -3.2581    3.0816 H   0  0  0  0  0  0  0  0  0  0  0  0
   -1.5379   -1.6912    4.8139 H   0  0  0  0  0  0  0  0  0  0  0  0
   -0.1054    0.2111    5.5027 H   0  0  0  0  0  0  0  0  0  0  0  0
    2.1017    0.5472    4.4605 H   0  0  0  0  0  0  0  0  0  0  0  0
    3.8325   -0.1613    2.8123 H   0  0  0  0  0  0  0  0  0  0  0  0
    4.5404   -1.6350    0.9856 H   0  0  0  0  0  0  0  0  0  0  0  0
    3.3258   -5.4848    1.0401 H   0  0  0  0  0  0  0  0  0  0  0  0
    3.8681   -6.9418   -0.8695 H   0  0  0  0  0  0  0  0  0  0  0  0
    3.9712   -6.0030   -3.1628 H   0  0  0  0  0  0  0  0  0  0  0  0
    3.5404   -3.6125   -3.5428 H   0  0  0  0  0  0  0  0  0  0  0  0
    4.9412   -1.4041   -2.4814 H   0  0  0  0  0  0  0  0  0  0  0  0
    2.4434    3.1546   -1.8626 H   0  0  0  0  0  0  0  0  0  0  0  0
    1.3618    2.6216   -3.1611 H   0  0  0  0  0  0  0  0  0  0  0  0
    3.2611    4.0682   -3.9165 H   0  0  0  0  0  0  0  0  0  0  0  0
    3.1683    2.5148   -4.7479 H   0  0  0  0  0  0  0  0  0  0  0  0
    4.9698    3.1075   -2.3413 H   0  0  0  0  0  0  0  0  0  0  0  0
    5.5158    3.0789   -4.0178 H   0  0  0  0  0  0  0  0  0  0  0  0
    5.0590    0.7447   -4.2625 H   0  0  0  0  0  0  0  0  0  0  0  0
    5.8919    0.9269   -2.7117 H   0  0  0  0  0  0  0  0  0  0  0  0
   -2.6475    0.9515   -4.1792 H   0  0  0  0  0  0  0  0  0  0  0  0
   -4.7113    0.2531   -5.3156 H   0  0  0  0  0  0  0  0  0  0  0  0
   -6.7340   -0.3107   -3.9927 H   0  0  0  0  0  0  0  0  0  0  0  0
   -6.6792   -0.1700   -1.5359 H   0  0  0  0  0  0  0  0  0  0  0  0
   -5.9564    2.2868    0.0948 H   0  0  0  0  0  0  0  0  0  0  0  0
   -6.0533    2.4312    2.5410 H   0  0  0  0  0  0  0  0  0  0  0  0
   -5.3948    1.5609    4.7776 H   0  0  0  0  0  0  0  0  0  0  0  0
   -4.1826   -0.0920    6.1463 H   0  0  0  0  0  0  0  0  0  0  0  0
   -2.8730   -1.8947    5.0562 H   0  0  0  0  0  0  0  0  0  0  0  0
   -2.7730   -2.0423    2.5966 H   0  0  0  0  0  0  0  0  0  0  0  0
   -3.4208   -1.1755    0.3746 H   0  0  0  0  0  0  0  0  0  0  0  0
   -3.0391    2.9404   -0.5905 H   0  0  0  0  0  0  0  0  0  0  0  0
    2.3958    2.1766    0.1026 H   0  0  0  0  0  0  0  0  0  0  0  0
    1.3878    1.5965    1.4128 H   0  0  0  0  0  0  0  0  0  0  0  0
    2.2383    3.8192    1.9333 H   0  0  0  0  0  0  0  0  0  0  0  0
    1.6300    4.4774    0.4122 H   0  0  0  0  0  0  0  0  0  0  0  0
   -0.0922    3.2749    2.6419 H   0  0  0  0  0  0  0  0  0  0  0  0
    0.1059    4.9997    2.3345 H   0  0  0  0  0  0  0  0  0  0  0  0
   -1.9859    3.9813    1.3471 H   0  0  0  0  0  0  0  0  0  0  0  0
   -0.9786    4.8586    0.1884 H   0  0  0  0  0  0  0  0  0  0  0  0
  2  1  2  0  0  0  0
  2  4  1  0  0  0  0
  3  2  1  0  0  0  0
  5  4  1  0  0  0  0
  6  5  1  0  0  0  0
  6  7  1  0  0  0  0
  7  8  2  0  0  0  0
  8 19  1  0  0  0  0
  8  9  1  0  0  0  0
  9 18  2  0  0  0  0
  9 10  1  0  0  0  0
 10 11  2  0  0  0  0
 11 16  1  0  0  0  0
 11 12  1  0  0  0  0
 12 13  2  0  0  0  0
 13 14  1  0  0  0  0
 13 61  1  0  0  0  0
 14 62  1  0  0  0  0
 15 63  1  0  0  0  0
 15 14  2  0  0  0  0
 16 15  1  0  0  0  0
 17 64  1  0  0  0  0
 17 16  2  0  0  0  0
 18 17  1  0  0  0  0
 19 66  1  0  0  0  0
 20 67  1  0  0  0  0
 20 19  2  0  0  0  0
 21 20  1  0  0  0  0
 22 21  2  0  0  0  0
 22  7  1  0  0  0  0
 23  6  2  0  0  0  0
 24 25  2  0  0  0  0
 24 23  1  0  0  0  0
 25 30  1  0  0  0  0
 26 25  1  0  0  0  0
 26 71  1  0  0  0  0
 27 28  1  0  0  0  0
 27 26  1  0  0  0  0
 28 29  1  0  0  0  0
 28 75  1  0  0  0  0
 29 78  1  0  0  0  0
 29 24  1  0  0  0  0
 30  5  2  0  0  0  0
 30 31  1  0  0  0  0
 31 53  2  0  0  0  0
 32 34  2  0  0  0  0
 32 31  1  0  0  0  0
 33  2  1  0  0  0  0
 33 32  1  0  0  0  0
 34 51  1  0  0  0  0
 35 34  1  0  0  0  0
 35 40  2  0  0  0  0
 36 35  1  0  0  0  0
 37 36  2  0  0  0  0
 37 38  1  0  0  0  0
 38 39  2  0  0  0  0
 39 82  1  0  0  0  0
 39 40  1  0  0  0  0
 40 41  1  0  0  0  0
 41 42  2  0  0  0  0
 41 50  1  0  0  0  0
 42 43  1  0  0  0  0
 43 84  1  0  0  0  0
 43 44  2  0  0  0  0
 44 45  1  0  0  0  0
 45 85  1  0  0  0  0
 45 46  2  0  0  0  0
 46 86  1  0  0  0  0
 47 87  1  0  0  0  0
 47 46  1  0  0  0  0
 48 47  2  0  0  0  0
 49 44  1  0  0  0  0
 49 48  1  0  0  0  0
 50 49  2  0  0  0  0
 51 90  1  0  0  0  0
 51 52  2  0  0  0  0
 52 57  1  0  0  0  0
 53 52  1  0  0  0  0
 53 54  1  0  0  0  0
 54 55  1  0  0  0  0
 54 92  1  0  0  0  0
 55 56  1  0  0  0  0
 55 93  1  0  0  0  0
 56 96  1  0  0  0  0
 56 95  1  0  0  0  0
 57 97  1  0  0  0  0
 57 56  1  0  0  0  0
 58  3  1  0  0  0  0
 59 10  1  0  0  0  0
 60 12  1  0  0  0  0
 65 18  1  0  0  0  0
 68 21  1  0  0  0  0
 69 22  1  0  0  0  0
 70 23  1  0  0  0  0
 72 26  1  0  0  0  0
 73 27  1  0  0  0  0
 74 27  1  0  0  0  0
 76 28  1  0  0  0  0
 77 29  1  0  0  0  0
 79 36  1  0  0  0  0
 80 37  1  0  0  0  0
 81 38  1  0  0  0  0
 83 42  1  0  0  0  0
 88 48  1  0  0  0  0
 89 50  1  0  0  0  0
 91 54  1  0  0  0  0
 94 55  1  0  0  0  0
 98 57  1  0  0  0  0
M  END
$$$$
