O=P1(O)OC2=C(C3=C(OC)C=CC=C3OC)C=C4C(C=CC=C4)=C2C5=C(O1)[C@@]([C@@]6=C(OC)C=CC=C6OC)=CC7=C5C=CC=C7
 OpenBabel09032010373D

 74 80  0  0  0  0  0  0  0  0999 V2000
   -0.3540    2.3766   -2.0256 O   0  0  0  0  0  0  0  0  0  0  0  0
    0.1520    1.7029   -0.7878 P   0  0  0  0  0  0  0  0  0  0  0  0
    0.9788    2.7044    0.1621 O   0  0  0  0  0  0  0  0  0  0  0  0
    1.2068    0.5173   -1.0732 O   0  0  0  0  0  0  0  0  0  0  0  0
    1.5275   -0.3819   -0.0785 C   0  0  0  0  0  0  0  0  0  0  0  0
    2.8748   -0.4063    0.3247 C   0  0  0  0  0  0  0  0  0  0  0  0
    3.8829    0.5058   -0.2484 C   0  0  0  0  0  0  0  0  0  0  0  0
    4.6105    0.1387   -1.3976 C   0  0  0  0  0  0  0  0  0  0  0  0
    4.4073   -1.1006   -1.9559 O   0  0  0  0  0  0  0  0  0  0  0  0
    3.7766   -0.9875   -3.2324 C   0  0  0  0  0  0  0  0  0  0  0  0
    5.5872    0.9789   -1.9344 C   0  0  0  0  0  0  0  0  0  0  0  0
    5.8268    2.2187   -1.3513 C   0  0  0  0  0  0  0  0  0  0  0  0
    5.1035    2.6149   -0.2242 C   0  0  0  0  0  0  0  0  0  0  0  0
    4.1404    1.7670    0.3376 C   0  0  0  0  0  0  0  0  0  0  0  0
    3.3804    2.0843    1.4419 O   0  0  0  0  0  0  0  0  0  0  0  0
    3.7038    3.2898    2.1288 C   0  0  0  0  0  0  0  0  0  0  0  0
    3.2580   -1.3269    1.3008 C   0  0  0  0  0  0  0  0  0  0  0  0
    2.3298   -2.1815    1.8972 C   0  0  0  0  0  0  0  0  0  0  0  0
    0.9698   -2.1528    1.4883 C   0  0  0  0  0  0  0  0  0  0  0  0
    0.0831   -2.9836    2.2212 C   0  0  0  0  0  0  0  0  0  0  0  0
    0.5166   -3.8377    3.2395 C   0  0  0  0  0  0  0  0  0  0  0  0
    1.8588   -3.8800    3.5791 C   0  0  0  0  0  0  0  0  0  0  0  0
    2.7579   -3.0506    2.9158 C   0  0  0  0  0  0  0  0  0  0  0  0
    0.5468   -1.2759    0.4218 C   0  0  0  0  0  0  0  0  0  0  0  0
   -0.7929   -1.2868   -0.1278 C   0  0  0  0  0  0  0  0  0  0  0  0
   -1.5479   -0.0907   -0.1688 C   0  0  0  0  0  0  0  0  0  0  0  0
   -0.9484    1.0885    0.2127 O   0  0  0  0  0  0  0  0  0  0  0  0
   -2.9059   -0.0366   -0.5253 C   0  0  0  0  0  0  0  0  0  0  0  0
   -3.6830    1.2201   -0.4803 C   0  0  0  0  0  0  0  0  0  0  0  0
   -3.9647    1.9316   -1.6679 C   0  0  0  0  0  0  0  0  0  0  0  0
   -3.5280    1.3830   -2.8503 O   0  0  0  0  0  0  0  0  0  0  0  0
   -3.0598    2.3273   -3.8097 C   0  0  0  0  0  0  0  0  0  0  0  0
   -4.7098    3.1138   -1.6278 C   0  0  0  0  0  0  0  0  0  0  0  0
   -5.1577    3.6161   -0.4092 C   0  0  0  0  0  0  0  0  0  0  0  0
   -4.8764    2.9359    0.7755 C   0  0  0  0  0  0  0  0  0  0  0  0
   -4.1463    1.7417    0.7518 C   0  0  0  0  0  0  0  0  0  0  0  0
   -3.8571    0.9985    1.8717 O   0  0  0  0  0  0  0  0  0  0  0  0
   -4.1289    1.5833    3.1372 C   0  0  0  0  0  0  0  0  0  0  0  0
   -3.5249   -1.2217   -0.9275 C   0  0  0  0  0  0  0  0  0  0  0  0
   -2.8178   -2.4245   -1.0035 C   0  0  0  0  0  0  0  0  0  0  0  0
   -1.4497   -2.4711   -0.6252 C   0  0  0  0  0  0  0  0  0  0  0  0
   -0.7888   -3.7117   -0.8156 C   0  0  0  0  0  0  0  0  0  0  0  0
   -1.4476   -4.8502   -1.2884 C   0  0  0  0  0  0  0  0  0  0  0  0
   -2.7944   -4.7851   -1.6069 C   0  0  0  0  0  0  0  0  0  0  0  0
   -3.4725   -3.5771   -1.4710 C   0  0  0  0  0  0  0  0  0  0  0  0
    1.5092    2.2234    0.8273 H   0  0  0  0  0  0  0  0  0  0  0  0
    3.3970   -1.9766   -3.5057 H   0  0  0  0  0  0  0  0  0  0  0  0
    2.9286   -0.2940   -3.2104 H   0  0  0  0  0  0  0  0  0  0  0  0
    4.4997   -0.6808   -3.9949 H   0  0  0  0  0  0  0  0  0  0  0  0
    6.1646    0.6660   -2.7991 H   0  0  0  0  0  0  0  0  0  0  0  0
    6.5795    2.8799   -1.7735 H   0  0  0  0  0  0  0  0  0  0  0  0
    5.3149    3.5957    0.1889 H   0  0  0  0  0  0  0  0  0  0  0  0
    3.0570    3.3535    3.0091 H   0  0  0  0  0  0  0  0  0  0  0  0
    3.4994    4.1643    1.5028 H   0  0  0  0  0  0  0  0  0  0  0  0
    4.7416    3.2815    2.4777 H   0  0  0  0  0  0  0  0  0  0  0  0
    4.3017   -1.3542    1.6115 H   0  0  0  0  0  0  0  0  0  0  0  0
   -0.9857   -2.9680    2.0138 H   0  0  0  0  0  0  0  0  0  0  0  0
   -0.2023   -4.4616    3.7637 H   0  0  0  0  0  0  0  0  0  0  0  0
    2.2049   -4.5418    4.3680 H   0  0  0  0  0  0  0  0  0  0  0  0
    3.8051   -3.0788    3.2119 H   0  0  0  0  0  0  0  0  0  0  0  0
   -2.3673    1.8087   -4.4795 H   0  0  0  0  0  0  0  0  0  0  0  0
   -3.8969    2.6953   -4.4112 H   0  0  0  0  0  0  0  0  0  0  0  0
   -2.5236    3.1647   -3.3508 H   0  0  0  0  0  0  0  0  0  0  0  0
   -4.9609    3.6481   -2.5383 H   0  0  0  0  0  0  0  0  0  0  0  0
   -5.7347    4.5369   -0.3826 H   0  0  0  0  0  0  0  0  0  0  0  0
   -5.2513    3.3573    1.7017 H   0  0  0  0  0  0  0  0  0  0  0  0
   -3.6129    2.5423    3.2526 H   0  0  0  0  0  0  0  0  0  0  0  0
   -5.2068    1.6906    3.2959 H   0  0  0  0  0  0  0  0  0  0  0  0
   -3.7465    0.9061    3.9069 H   0  0  0  0  0  0  0  0  0  0  0  0
   -4.5753   -1.1882   -1.2135 H   0  0  0  0  0  0  0  0  0  0  0  0
    0.2754   -3.8067   -0.6062 H   0  0  0  0  0  0  0  0  0  0  0  0
   -0.8994   -5.7804   -1.4107 H   0  0  0  0  0  0  0  0  0  0  0  0
   -3.3144   -5.6644   -1.9765 H   0  0  0  0  0  0  0  0  0  0  0  0
   -4.5242   -3.5370   -1.7489 H   0  0  0  0  0  0  0  0  0  0  0  0
  1  2  2  0  0  0  0
  2  3  1  0  0  0  0
  2 27  1  0  0  0  0
  3 46  1  0  0  0  0
  4  2  1  0  0  0  0
  4  5  1  0  0  0  0
  5  6  2  0  0  0  0
  5 24  1  0  0  0  0
  6 17  1  0  0  0  0
  7  6  1  0  0  0  0
  7 14  2  0  0  0  0
  8  7  1  0  0  0  0
  9  8  1  0  0  0  0
 10 48  1  0  0  0  0
 10  9  1  0  0  0  0
 11  8  2  0  0  0  0
 11 12  1  0  0  0  0
 12 13  2  0  0  0  0
 13 52  1  0  0  0  0
 13 14  1  0  0  0  0
 14 15  1  0  0  0  0
 15 16  1  0  0  0  0
 16 55  1  0  0  0  0
 16 53  1  0  0  0  0
 17 56  1  0  0  0  0
 17 18  2  0  0  0  0
 18 23  1  0  0  0  0
 19 18  1  0  0  0  0
 19 20  1  0  0  0  0
 20 21  2  0  0  0  0
 21 22  1  0  0  0  0
 21 58  1  0  0  0  0
 22 59  1  0  0  0  0
 23 60  1  0  0  0  0
 23 22  2  0  0  0  0
 24 19  2  0  0  0  0
 25 24  1  0  0  0  0
 26 25  1  0  0  0  0
 26 27  1  0  0  0  0
 28 29  1  0  0  0  0
 28 26  2  0  0  0  0
 29 36  2  0  0  0  0
 30 33  2  0  0  0  0
 30 29  1  0  0  0  0
 31 30  1  0  0  0  0
 32 63  1  0  0  0  0
 32 31  1  0  0  0  0
 33 34  1  0  0  0  0
 34 65  1  0  0  0  0
 34 35  2  0  0  0  0
 35 66  1  0  0  0  0
 36 35  1  0  0  0  0
 36 37  1  0  0  0  0
 37 38  1  0  0  0  0
 38 67  1  0  0  0  0
 38 68  1  0  0  0  0
 38 69  1  0  0  0  0
 39 28  1  0  0  0  0
 40 39  2  0  0  0  0
 40 41  1  0  0  0  0
 41 25  2  0  0  0  0
 42 41  1  0  0  0  0
 42 71  1  0  0  0  0
 43 42  2  0  0  0  0
 44 45  2  0  0  0  0
 44 43  1  0  0  0  0
 45 40  1  0  0  0  0
 47 10  1  0  0  0  0
 49 10  1  0  0  0  0
 50 11  1  0  0  0  0
 51 12  1  0  0  0  0
 54 16  1  0  0  0  0
 57 20  1  0  0  0  0
 61 32  1  0  0  0  0
 62 32  1  0  0  0  0
 64 33  1  0  0  0  0
 70 39  1  0  0  0  0
 72 43  1  0  0  0  0
 73 44  1  0  0  0  0
 74 45  1  0  0  0  0
M  END
$$$$
