O=P1(O)OC2=C(C3=C(C=CC=C4)C4=CC5=C3C=CC=C5)C=C6C(C=CC=C6)=C2C7=C(O1)[C@@]([C@@]8=C(C=CC=C9)C9=CC%10=C8C=CC=C%10)=CC%11=C7C=CC=C%11
 OpenBabel09032010383D

 82 92  0  0  0  0  0  0  0  0999 V2000
    0.3487    1.9042    2.0546 O   0  0  0  0  0  0  0  0  0  0  0  0
   -0.0595    1.3818    0.7146 P   0  0  0  0  0  0  0  0  0  0  0  0
   -0.7348    2.5328   -0.1811 O   0  0  0  0  0  0  0  0  0  0  0  0
    1.1131    0.8286   -0.2390 O   0  0  0  0  0  0  0  0  0  0  0  0
    1.5645   -0.4531   -0.0295 C   0  0  0  0  0  0  0  0  0  0  0  0
    2.8855   -0.5943    0.4302 C   0  0  0  0  0  0  0  0  0  0  0  0
    3.7665    0.5693    0.6953 C   0  0  0  0  0  0  0  0  0  0  0  0
    4.4964    1.1696   -0.3822 C   0  0  0  0  0  0  0  0  0  0  0  0
    4.4155    0.7384   -1.7309 C   0  0  0  0  0  0  0  0  0  0  0  0
    5.1467    1.3508   -2.7516 C   0  0  0  0  0  0  0  0  0  0  0  0
    5.9851    2.4148   -2.4558 C   0  0  0  0  0  0  0  0  0  0  0  0
    6.0896    2.8629   -1.1410 C   0  0  0  0  0  0  0  0  0  0  0  0
    5.3585    2.2544   -0.1053 C   0  0  0  0  0  0  0  0  0  0  0  0
    5.4886    2.7228    1.2073 C   0  0  0  0  0  0  0  0  0  0  0  0
    4.7828    2.1490    2.2712 C   0  0  0  0  0  0  0  0  0  0  0  0
    3.9082    1.0655    2.0316 C   0  0  0  0  0  0  0  0  0  0  0  0
    3.2158    0.5364    3.1497 C   0  0  0  0  0  0  0  0  0  0  0  0
    3.3825    1.0495    4.4378 C   0  0  0  0  0  0  0  0  0  0  0  0
    4.2516    2.1083    4.6501 C   0  0  0  0  0  0  0  0  0  0  0  0
    4.9461    2.6543    3.5731 C   0  0  0  0  0  0  0  0  0  0  0  0
    3.3804   -1.8854    0.6260 C   0  0  0  0  0  0  0  0  0  0  0  0
    2.5814   -3.0094    0.4104 C   0  0  0  0  0  0  0  0  0  0  0  0
    1.2509   -2.8585   -0.0643 C   0  0  0  0  0  0  0  0  0  0  0  0
    0.4860   -4.0491   -0.1644 C   0  0  0  0  0  0  0  0  0  0  0  0
    1.0144   -5.3112    0.1209 C   0  0  0  0  0  0  0  0  0  0  0  0
    2.3306   -5.4283    0.5362 C   0  0  0  0  0  0  0  0  0  0  0  0
    3.1068   -4.2830    0.6854 C   0  0  0  0  0  0  0  0  0  0  0  0
    0.7288   -1.5469   -0.3657 C   0  0  0  0  0  0  0  0  0  0  0  0
   -0.5595   -1.3195   -0.9935 C   0  0  0  0  0  0  0  0  0  0  0  0
   -1.5058   -0.4522   -0.3950 C   0  0  0  0  0  0  0  0  0  0  0  0
   -1.1812    0.2276    0.7562 O   0  0  0  0  0  0  0  0  0  0  0  0
   -2.8310   -0.3101   -0.8496 C   0  0  0  0  0  0  0  0  0  0  0  0
   -3.8189    0.5467   -0.1462 C   0  0  0  0  0  0  0  0  0  0  0  0
   -4.5065    0.0422    1.0059 C   0  0  0  0  0  0  0  0  0  0  0  0
   -4.3183   -1.2607    1.5332 C   0  0  0  0  0  0  0  0  0  0  0  0
   -5.0073   -1.7119    2.6616 C   0  0  0  0  0  0  0  0  0  0  0  0
   -5.9095   -0.8740    3.2991 C   0  0  0  0  0  0  0  0  0  0  0  0
   -6.1205    0.4114    2.8061 C   0  0  0  0  0  0  0  0  0  0  0  0
   -5.4332    0.8765    1.6709 C   0  0  0  0  0  0  0  0  0  0  0  0
   -5.6682    2.1725    1.1979 C   0  0  0  0  0  0  0  0  0  0  0  0
   -5.0108    2.6794    0.0714 C   0  0  0  0  0  0  0  0  0  0  0  0
   -4.0791    1.8737   -0.6207 C   0  0  0  0  0  0  0  0  0  0  0  0
   -3.4474    2.4481   -1.7525 C   0  0  0  0  0  0  0  0  0  0  0  0
   -3.7172    3.7520   -2.1733 C   0  0  0  0  0  0  0  0  0  0  0  0
   -4.6351    4.5235   -1.4781 C   0  0  0  0  0  0  0  0  0  0  0  0
   -5.2779    3.9895   -0.3638 C   0  0  0  0  0  0  0  0  0  0  0  0
   -3.2166   -1.0160   -1.9905 C   0  0  0  0  0  0  0  0  0  0  0  0
   -2.3078   -1.8114   -2.6914 C   0  0  0  0  0  0  0  0  0  0  0  0
   -0.9747   -1.9566   -2.2206 C   0  0  0  0  0  0  0  0  0  0  0  0
   -0.1000   -2.7076   -3.0473 C   0  0  0  0  0  0  0  0  0  0  0  0
   -0.5236   -3.3304   -4.2249 C   0  0  0  0  0  0  0  0  0  0  0  0
   -1.8423   -3.2095   -4.6315 C   0  0  0  0  0  0  0  0  0  0  0  0
   -2.7265   -2.4492   -3.8716 C   0  0  0  0  0  0  0  0  0  0  0  0
   -1.3271    3.0849    0.3614 H   0  0  0  0  0  0  0  0  0  0  0  0
    3.7673   -0.0904   -2.0074 H   0  0  0  0  0  0  0  0  0  0  0  0
    5.0551    0.9936   -3.7738 H   0  0  0  0  0  0  0  0  0  0  0  0
    6.5566    2.8966   -3.2441 H   0  0  0  0  0  0  0  0  0  0  0  0
    6.7530    3.6988   -0.9280 H   0  0  0  0  0  0  0  0  0  0  0  0
    6.1576    3.5588    1.4070 H   0  0  0  0  0  0  0  0  0  0  0  0
    2.5074   -0.2802    3.0269 H   0  0  0  0  0  0  0  0  0  0  0  0
    2.8197    0.6262    5.2652 H   0  0  0  0  0  0  0  0  0  0  0  0
    4.3829    2.5160    5.6483 H   0  0  0  0  0  0  0  0  0  0  0  0
    5.6182    3.4894    3.7585 H   0  0  0  0  0  0  0  0  0  0  0  0
    4.4041   -2.0043    0.9810 H   0  0  0  0  0  0  0  0  0  0  0  0
   -0.5608   -4.0081   -0.4595 H   0  0  0  0  0  0  0  0  0  0  0  0
    0.3898   -6.1951    0.0219 H   0  0  0  0  0  0  0  0  0  0  0  0
    2.7506   -6.4041    0.7619 H   0  0  0  0  0  0  0  0  0  0  0  0
    4.1315   -4.3932    1.0365 H   0  0  0  0  0  0  0  0  0  0  0  0
   -3.6189   -1.9507    1.0656 H   0  0  0  0  0  0  0  0  0  0  0  0
   -4.8333   -2.7165    3.0377 H   0  0  0  0  0  0  0  0  0  0  0  0
   -6.4483   -1.2175    4.1780 H   0  0  0  0  0  0  0  0  0  0  0  0
   -6.8327    1.0538    3.3202 H   0  0  0  0  0  0  0  0  0  0  0  0
   -6.3851    2.8041    1.7214 H   0  0  0  0  0  0  0  0  0  0  0  0
   -2.7083    1.8843   -2.3197 H   0  0  0  0  0  0  0  0  0  0  0  0
   -3.2029    4.1576   -3.0410 H   0  0  0  0  0  0  0  0  0  0  0  0
   -4.8526    5.5382   -1.8007 H   0  0  0  0  0  0  0  0  0  0  0  0
   -5.9968    4.6105    0.1678 H   0  0  0  0  0  0  0  0  0  0  0  0
   -4.2412   -0.9149   -2.3479 H   0  0  0  0  0  0  0  0  0  0  0  0
    0.9520   -2.8093   -2.7866 H   0  0  0  0  0  0  0  0  0  0  0  0
    0.1839   -3.9021   -4.8200 H   0  0  0  0  0  0  0  0  0  0  0  0
   -2.1811   -3.6888   -5.5457 H   0  0  0  0  0  0  0  0  0  0  0  0
   -3.7527   -2.3458   -4.2206 H   0  0  0  0  0  0  0  0  0  0  0  0
  2 31  1  0  0  0  0
  2  1  2  0  0  0  0
  3 54  1  0  0  0  0
  3  2  1  0  0  0  0
  4  5  1  0  0  0  0
  4  2  1  0  0  0  0
  5  6  2  0  0  0  0
  6 21  1  0  0  0  0
  6  7  1  0  0  0  0
  7 16  2  0  0  0  0
  8 13  1  0  0  0  0
  8  7  1  0  0  0  0
  9  8  2  0  0  0  0
 10 11  2  0  0  0  0
 10  9  1  0  0  0  0
 11 12  1  0  0  0  0
 12 58  1  0  0  0  0
 12 13  2  0  0  0  0
 13 14  1  0  0  0  0
 14 59  1  0  0  0  0
 14 15  2  0  0  0  0
 15 20  1  0  0  0  0
 16 15  1  0  0  0  0
 16 17  1  0  0  0  0
 17 18  2  0  0  0  0
 18 19  1  0  0  0  0
 18 61  1  0  0  0  0
 19 62  1  0  0  0  0
 20 63  1  0  0  0  0
 20 19  2  0  0  0  0
 21 64  1  0  0  0  0
 22 21  2  0  0  0  0
 22 27  1  0  0  0  0
 23 22  1  0  0  0  0
 24 23  1  0  0  0  0
 24 25  2  0  0  0  0
 25 26  1  0  0  0  0
 26 27  2  0  0  0  0
 26 67  1  0  0  0  0
 27 68  1  0  0  0  0
 28 23  2  0  0  0  0
 28  5  1  0  0  0  0
 29 30  2  0  0  0  0
 29 28  1  0  0  0  0
 30 31  1  0  0  0  0
 32 30  1  0  0  0  0
 32 33  1  0  0  0  0
 33 34  1  0  0  0  0
 34 35  2  0  0  0  0
 34 39  1  0  0  0  0
 35 36  1  0  0  0  0
 36 70  1  0  0  0  0
 36 37  2  0  0  0  0
 37 71  1  0  0  0  0
 38 37  1  0  0  0  0
 38 72  1  0  0  0  0
 39 38  2  0  0  0  0
 40 39  1  0  0  0  0
 40 73  1  0  0  0  0
 41 40  2  0  0  0  0
 42 33  2  0  0  0  0
 42 41  1  0  0  0  0
 43 42  1  0  0  0  0
 44 43  2  0  0  0  0
 44 45  1  0  0  0  0
 45 46  2  0  0  0  0
 46 41  1  0  0  0  0
 46 77  1  0  0  0  0
 47 32  2  0  0  0  0
 48 49  1  0  0  0  0
 48 47  1  0  0  0  0
 49 29  1  0  0  0  0
 50 79  1  0  0  0  0
 50 49  2  0  0  0  0
 51 50  1  0  0  0  0
 52 51  2  0  0  0  0
 52 53  1  0  0  0  0
 53 48  2  0  0  0  0
 55  9  1  0  0  0  0
 56 10  1  0  0  0  0
 57 11  1  0  0  0  0
 60 17  1  0  0  0  0
 65 24  1  0  0  0  0
 66 25  1  0  0  0  0
 69 35  1  0  0  0  0
 74 43  1  0  0  0  0
 75 44  1  0  0  0  0
 76 45  1  0  0  0  0
 78 47  1  0  0  0  0
 80 51  1  0  0  0  0
 81 52  1  0  0  0  0
 82 53  1  0  0  0  0
M  END
$$$$
