O=P1(O)OC2=C(CC3=C(C=CC=C4)C4=CC5=C3C=CC=C5)C=C6C(C=CC=C6)=C2C7=C(O1)C(CC8=C(C=CC=C9)C9=CC%10=C8C=CC=C%10)=CC%11=C7C=CC=C%11
 OpenBabel09032010373D

 88 98  0  0  0  0  0  0  0  0999 V2000
    0.6603    3.7172    0.7393 O   0  0  0  0  0  0  0  0  0  0  0  0
    0.3566    2.3329    0.2529 P   0  0  0  0  0  0  0  0  0  0  0  0
   -0.0711    2.3057   -1.2980 O   0  0  0  0  0  0  0  0  0  0  0  0
   -0.8724    1.6173    1.0100 O   0  0  0  0  0  0  0  0  0  0  0  0
   -1.0476    0.2545    0.9268 C   0  0  0  0  0  0  0  0  0  0  0  0
   -2.2635   -0.1723    0.3596 C   0  0  0  0  0  0  0  0  0  0  0  0
   -3.2665    0.8559   -0.1383 C   0  0  0  0  0  0  0  0  0  0  0  0
   -4.4130    0.3469   -1.0112 C   0  0  0  0  0  0  0  0  0  0  0  0
   -4.2137    0.2028   -2.4249 C   0  0  0  0  0  0  0  0  0  0  0  0
   -2.9861    0.4468   -3.0919 C   0  0  0  0  0  0  0  0  0  0  0  0
   -2.8478    0.3023   -4.4755 C   0  0  0  0  0  0  0  0  0  0  0  0
   -3.9334   -0.0948   -5.2398 C   0  0  0  0  0  0  0  0  0  0  0  0
   -5.1512   -0.3535   -4.6167 C   0  0  0  0  0  0  0  0  0  0  0  0
   -5.3007   -0.2155   -3.2253 C   0  0  0  0  0  0  0  0  0  0  0  0
   -6.5354   -0.4998   -2.6322 C   0  0  0  0  0  0  0  0  0  0  0  0
   -6.7325   -0.4052   -1.2503 C   0  0  0  0  0  0  0  0  0  0  0  0
   -5.6729    0.0106   -0.4123 C   0  0  0  0  0  0  0  0  0  0  0  0
   -5.9396    0.0509    0.9804 C   0  0  0  0  0  0  0  0  0  0  0  0
   -7.1897   -0.2810    1.5106 C   0  0  0  0  0  0  0  0  0  0  0  0
   -8.2167   -0.6691    0.6653 C   0  0  0  0  0  0  0  0  0  0  0  0
   -7.9868   -0.7329   -0.7061 C   0  0  0  0  0  0  0  0  0  0  0  0
   -2.5207   -1.5432    0.3302 C   0  0  0  0  0  0  0  0  0  0  0  0
   -1.5868   -2.4719    0.7986 C   0  0  0  0  0  0  0  0  0  0  0  0
   -0.3595   -2.0319    1.3606 C   0  0  0  0  0  0  0  0  0  0  0  0
    0.5645   -3.0507    1.7125 C   0  0  0  0  0  0  0  0  0  0  0  0
    0.2721   -4.4122    1.5899 C   0  0  0  0  0  0  0  0  0  0  0  0
   -0.9565   -4.8093    1.0892 C   0  0  0  0  0  0  0  0  0  0  0  0
   -1.8754   -3.8437    0.6885 C   0  0  0  0  0  0  0  0  0  0  0  0
   -0.0875   -0.6223    1.5003 C   0  0  0  0  0  0  0  0  0  0  0  0
    1.0852   -0.1065    2.1851 C   0  0  0  0  0  0  0  0  0  0  0  0
    1.9502    0.7967    1.5210 C   0  0  0  0  0  0  0  0  0  0  0  0
    1.5718    1.2803    0.2960 O   0  0  0  0  0  0  0  0  0  0  0  0
    3.2077    1.1839    2.0122 C   0  0  0  0  0  0  0  0  0  0  0  0
    4.1728    2.0806    1.2473 C   0  0  0  0  0  0  0  0  0  0  0  0
    4.4240    1.6983   -0.2147 C   0  0  0  0  0  0  0  0  0  0  0  0
    5.1271    0.4798   -0.5117 C   0  0  0  0  0  0  0  0  0  0  0  0
    5.7305   -0.3597    0.4592 C   0  0  0  0  0  0  0  0  0  0  0  0
    6.3969   -1.5406    0.1191 C   0  0  0  0  0  0  0  0  0  0  0  0
    6.4912   -1.9209   -1.2094 C   0  0  0  0  0  0  0  0  0  0  0  0
    5.9160   -1.1205   -2.1918 C   0  0  0  0  0  0  0  0  0  0  0  0
    5.2386    0.0668   -1.8589 C   0  0  0  0  0  0  0  0  0  0  0  0
    4.6622    0.8367   -2.8733 C   0  0  0  0  0  0  0  0  0  0  0  0
    3.9991    2.0389   -2.6040 C   0  0  0  0  0  0  0  0  0  0  0  0
    3.9042    2.5162   -1.2771 C   0  0  0  0  0  0  0  0  0  0  0  0
    3.2758    3.7786   -1.1069 C   0  0  0  0  0  0  0  0  0  0  0  0
    2.7219    4.4951   -2.1716 C   0  0  0  0  0  0  0  0  0  0  0  0
    2.7792    3.9740   -3.4515 C   0  0  0  0  0  0  0  0  0  0  0  0
    3.4234    2.7593   -3.6653 C   0  0  0  0  0  0  0  0  0  0  0  0
    3.5647    0.7521    3.2922 C   0  0  0  0  0  0  0  0  0  0  0  0
    2.7162   -0.0564    4.0544 C   0  0  0  0  0  0  0  0  0  0  0  0
    1.4716   -0.4849    3.5217 C   0  0  0  0  0  0  0  0  0  0  0  0
    0.6433   -1.2396    4.3913 C   0  0  0  0  0  0  0  0  0  0  0  0
    1.0388   -1.6010    5.6819 C   0  0  0  0  0  0  0  0  0  0  0  0
    2.2766   -1.2026    6.1595 C   0  0  0  0  0  0  0  0  0  0  0  0
    3.1064   -0.4298    5.3522 C   0  0  0  0  0  0  0  0  0  0  0  0
    0.5800    2.8009   -1.8333 H   0  0  0  0  0  0  0  0  0  0  0  0
   -3.6632    1.3976    0.7280 H   0  0  0  0  0  0  0  0  0  0  0  0
   -2.7418    1.6395   -0.6984 H   0  0  0  0  0  0  0  0  0  0  0  0
   -2.0992    0.7468   -2.5389 H   0  0  0  0  0  0  0  0  0  0  0  0
   -1.8880    0.4976   -4.9462 H   0  0  0  0  0  0  0  0  0  0  0  0
   -3.8348   -0.2095   -6.3156 H   0  0  0  0  0  0  0  0  0  0  0  0
   -5.9915   -0.6710   -5.2315 H   0  0  0  0  0  0  0  0  0  0  0  0
   -7.3637   -0.8193   -3.2636 H   0  0  0  0  0  0  0  0  0  0  0  0
   -5.1669    0.3300    1.6922 H   0  0  0  0  0  0  0  0  0  0  0  0
   -7.3518   -0.2367    2.5845 H   0  0  0  0  0  0  0  0  0  0  0  0
   -9.1918   -0.9276    1.0688 H   0  0  0  0  0  0  0  0  0  0  0  0
   -8.8018   -1.0486   -1.3544 H   0  0  0  0  0  0  0  0  0  0  0  0
   -3.4574   -1.9094   -0.0877 H   0  0  0  0  0  0  0  0  0  0  0  0
    1.5559   -2.7920    2.0800 H   0  0  0  0  0  0  0  0  0  0  0  0
    1.0131   -5.1525    1.8789 H   0  0  0  0  0  0  0  0  0  0  0  0
   -1.1945   -5.8647    0.9888 H   0  0  0  0  0  0  0  0  0  0  0  0
   -2.8247   -4.1734    0.2681 H   0  0  0  0  0  0  0  0  0  0  0  0
    3.8095    3.1033    1.3647 H   0  0  0  0  0  0  0  0  0  0  0  0
    5.1515    2.0987    1.7463 H   0  0  0  0  0  0  0  0  0  0  0  0
    5.6973   -0.1057    1.5140 H   0  0  0  0  0  0  0  0  0  0  0  0
    6.8390   -2.1572    0.8970 H   0  0  0  0  0  0  0  0  0  0  0  0
    7.0099   -2.8353   -1.4835 H   0  0  0  0  0  0  0  0  0  0  0  0
    6.0023   -1.4353   -3.2306 H   0  0  0  0  0  0  0  0  0  0  0  0
    4.7426    0.4926   -3.9047 H   0  0  0  0  0  0  0  0  0  0  0  0
    3.1918    4.2430   -0.1277 H   0  0  0  0  0  0  0  0  0  0  0  0
    2.2441    5.4547   -1.9867 H   0  0  0  0  0  0  0  0  0  0  0  0
    2.3394    4.5139   -4.2844 H   0  0  0  0  0  0  0  0  0  0  0  0
    3.4730    2.3709   -4.6803 H   0  0  0  0  0  0  0  0  0  0  0  0
    4.5197    1.0672    3.7111 H   0  0  0  0  0  0  0  0  0  0  0  0
   -0.3493   -1.5525    4.0716 H   0  0  0  0  0  0  0  0  0  0  0  0
    0.3721   -2.1880    6.3081 H   0  0  0  0  0  0  0  0  0  0  0  0
    2.5913   -1.4779    7.1623 H   0  0  0  0  0  0  0  0  0  0  0  0
    4.0659   -0.1091    5.7538 H   0  0  0  0  0  0  0  0  0  0  0  0
  2 32  1  0  0  0  0
  2  1  2  0  0  0  0
  2  4  1  0  0  0  0
  3  2  1  0  0  0  0
  5  4  1  0  0  0  0
  5 29  2  0  0  0  0
  6  5  1  0  0  0  0
  7  6  1  0  0  0  0
  7 57  1  0  0  0  0
  8 17  1  0  0  0  0
  8  7  1  0  0  0  0
  9  8  2  0  0  0  0
 10 59  1  0  0  0  0
 10  9  1  0  0  0  0
 11 10  2  0  0  0  0
 12 13  2  0  0  0  0
 12 11  1  0  0  0  0
 13 14  1  0  0  0  0
 14 15  2  0  0  0  0
 14  9  1  0  0  0  0
 15 16  1  0  0  0  0
 16 21  2  0  0  0  0
 16 17  1  0  0  0  0
 17 18  2  0  0  0  0
 18 19  1  0  0  0  0
 18 64  1  0  0  0  0
 19 65  1  0  0  0  0
 20 66  1  0  0  0  0
 20 19  2  0  0  0  0
 21 20  1  0  0  0  0
 22  6  2  0  0  0  0
 22 23  1  0  0  0  0
 23 24  1  0  0  0  0
 24 29  1  0  0  0  0
 24 25  2  0  0  0  0
 25 69  1  0  0  0  0
 26 25  1  0  0  0  0
 26 70  1  0  0  0  0
 27 26  2  0  0  0  0
 28 23  2  0  0  0  0
 28 27  1  0  0  0  0
 29 30  1  0  0  0  0
 30 51  2  0  0  0  0
 31 33  2  0  0  0  0
 31 30  1  0  0  0  0
 32 31  1  0  0  0  0
 33 49  1  0  0  0  0
 34 73  1  0  0  0  0
 34 74  1  0  0  0  0
 34 33  1  0  0  0  0
 35 34  1  0  0  0  0
 36 35  1  0  0  0  0
 36 37  2  0  0  0  0
 37 75  1  0  0  0  0
 38 37  1  0  0  0  0
 38 76  1  0  0  0  0
 39 38  2  0  0  0  0
 40 41  2  0  0  0  0
 40 39  1  0  0  0  0
 41 36  1  0  0  0  0
 42 43  2  0  0  0  0
 42 41  1  0  0  0  0
 43 44  1  0  0  0  0
 44 45  1  0  0  0  0
 44 35  2  0  0  0  0
 45 80  1  0  0  0  0
 46 81  1  0  0  0  0
 46 45  2  0  0  0  0
 47 46  1  0  0  0  0
 48 47  2  0  0  0  0
 48 43  1  0  0  0  0
 49 84  1  0  0  0  0
 49 50  2  0  0  0  0
 50 55  1  0  0  0  0
 51 50  1  0  0  0  0
 51 52  1  0  0  0  0
 52 53  2  0  0  0  0
 53 54  1  0  0  0  0
 53 86  1  0  0  0  0
 54 87  1  0  0  0  0
 55 88  1  0  0  0  0
 55 54  2  0  0  0  0
 56  3  1  0  0  0  0
 58  7  1  0  0  0  0
 60 11  1  0  0  0  0
 61 12  1  0  0  0  0
 62 13  1  0  0  0  0
 63 15  1  0  0  0  0
 67 21  1  0  0  0  0
 68 22  1  0  0  0  0
 71 27  1  0  0  0  0
 72 28  1  0  0  0  0
 77 39  1  0  0  0  0
 78 40  1  0  0  0  0
 79 42  1  0  0  0  0
 82 47  1  0  0  0  0
 83 48  1  0  0  0  0
 85 52  1  0  0  0  0
M  END
$$$$
