O=P1(O)OC2=C(C3=C(C4=CC(C=CC=C5)=C5C=C4)C=CC=C3)C=C6C(CCCC6)=C2C7=C(O1)C(C8=CC=CC=C8C9=CC=C(C=CC=C%10)C%10=C9)=CC%11=C7CCCC%11
 OpenBabel09032010383D

 98108  0  0  0  0  0  0  0  0999 V2000
   -2.1270   -1.1192    2.4204 O   0  0  0  0  0  0  0  0  0  0  0  0
   -0.8624   -1.2059    1.6241 P   0  0  0  0  0  0  0  0  0  0  0  0
    0.0278   -2.4469    2.1284 O   0  0  0  0  0  0  0  0  0  0  0  0
    0.1195    0.0576    1.7866 O   0  0  0  0  0  0  0  0  0  0  0  0
    1.1952    0.2098    0.9397 C   0  0  0  0  0  0  0  0  0  0  0  0
    2.4783    0.1854    1.5268 C   0  0  0  0  0  0  0  0  0  0  0  0
    2.6868   -0.0716    2.9737 C   0  0  0  0  0  0  0  0  0  0  0  0
    3.4700   -1.1546    3.4607 C   0  0  0  0  0  0  0  0  0  0  0  0
    4.1676   -2.1085    2.5745 C   0  0  0  0  0  0  0  0  0  0  0  0
    5.5728   -2.1493    2.5413 C   0  0  0  0  0  0  0  0  0  0  0  0
    6.2644   -3.0226    1.6843 C   0  0  0  0  0  0  0  0  0  0  0  0
    7.6674   -3.0510    1.6425 C   0  0  0  0  0  0  0  0  0  0  0  0
    8.3361   -3.9192    0.7786 C   0  0  0  0  0  0  0  0  0  0  0  0
    7.6127   -4.7695   -0.0524 C   0  0  0  0  0  0  0  0  0  0  0  0
    6.2185   -4.7552   -0.0212 C   0  0  0  0  0  0  0  0  0  0  0  0
    5.5319   -3.8873    0.8414 C   0  0  0  0  0  0  0  0  0  0  0  0
    4.1324   -3.8593    0.8821 C   0  0  0  0  0  0  0  0  0  0  0  0
    3.4622   -2.9830    1.7391 C   0  0  0  0  0  0  0  0  0  0  0  0
    3.6029   -1.3255    4.8553 C   0  0  0  0  0  0  0  0  0  0  0  0
    2.9914   -0.4563    5.7580 C   0  0  0  0  0  0  0  0  0  0  0  0
    2.2370    0.6083    5.2852 C   0  0  0  0  0  0  0  0  0  0  0  0
    2.0911    0.7990    3.9110 C   0  0  0  0  0  0  0  0  0  0  0  0
    3.5736    0.4081    0.6879 C   0  0  0  0  0  0  0  0  0  0  0  0
    3.4210    0.5329   -0.6979 C   0  0  0  0  0  0  0  0  0  0  0  0
    2.1249    0.5341   -1.2669 C   0  0  0  0  0  0  0  0  0  0  0  0
    2.0068    0.3872   -2.7807 C   0  0  0  0  0  0  0  0  0  0  0  0
    3.2143    0.9212   -3.5462 C   0  0  0  0  0  0  0  0  0  0  0  0
    4.4903    0.3099   -2.9925 C   0  0  0  0  0  0  0  0  0  0  0  0
    4.6706    0.7012   -1.5318 C   0  0  0  0  0  0  0  0  0  0  0  0
    0.9619    0.4564   -0.4375 C   0  0  0  0  0  0  0  0  0  0  0  0
   -0.3780    0.6146   -0.9442 C   0  0  0  0  0  0  0  0  0  0  0  0
   -1.3533   -0.3948   -0.7448 C   0  0  0  0  0  0  0  0  0  0  0  0
   -1.0248   -1.4747    0.0450 O   0  0  0  0  0  0  0  0  0  0  0  0
   -2.6309   -0.3809   -1.3393 C   0  0  0  0  0  0  0  0  0  0  0  0
   -3.6067   -1.4847   -1.1643 C   0  0  0  0  0  0  0  0  0  0  0  0
   -3.2365   -2.7834   -1.5761 C   0  0  0  0  0  0  0  0  0  0  0  0
   -4.1049   -3.8685   -1.4521 C   0  0  0  0  0  0  0  0  0  0  0  0
   -5.3711   -3.6809   -0.9162 C   0  0  0  0  0  0  0  0  0  0  0  0
   -5.7682   -2.4079   -0.5098 C   0  0  0  0  0  0  0  0  0  0  0  0
   -4.9081   -1.2952   -0.6253 C   0  0  0  0  0  0  0  0  0  0  0  0
   -5.4131    0.0165   -0.1780 C   0  0  0  0  0  0  0  0  0  0  0  0
   -4.9125    0.6321    0.9745 C   0  0  0  0  0  0  0  0  0  0  0  0
   -5.3869    1.8807    1.3853 C   0  0  0  0  0  0  0  0  0  0  0  0
   -6.3833    2.5440    0.6557 C   0  0  0  0  0  0  0  0  0  0  0  0
   -6.8697    3.7993    1.0543 C   0  0  0  0  0  0  0  0  0  0  0  0
   -7.8651    4.4447    0.3191 C   0  0  0  0  0  0  0  0  0  0  0  0
   -8.3862    3.8435   -0.8229 C   0  0  0  0  0  0  0  0  0  0  0  0
   -7.9126    2.5960   -1.2324 C   0  0  0  0  0  0  0  0  0  0  0  0
   -6.9109    1.9336   -0.5035 C   0  0  0  0  0  0  0  0  0  0  0  0
   -6.4211    0.6776   -0.9018 C   0  0  0  0  0  0  0  0  0  0  0  0
   -2.9535    0.7247   -2.1321 C   0  0  0  0  0  0  0  0  0  0  0  0
   -2.0820    1.8134   -2.2714 C   0  0  0  0  0  0  0  0  0  0  0  0
   -0.8128    1.7798   -1.6514 C   0  0  0  0  0  0  0  0  0  0  0  0
    0.0651    3.0253   -1.6921 C   0  0  0  0  0  0  0  0  0  0  0  0
   -0.6910    4.3042   -2.0481 C   0  0  0  0  0  0  0  0  0  0  0  0
   -1.5269    4.0756   -3.2961 C   0  0  0  0  0  0  0  0  0  0  0  0
   -2.5934    3.0232   -3.0199 C   0  0  0  0  0  0  0  0  0  0  0  0
   -0.0765   -2.5527    3.0917 H   0  0  0  0  0  0  0  0  0  0  0  0
    6.1356   -1.4727    3.1826 H   0  0  0  0  0  0  0  0  0  0  0  0
    8.2532   -2.3956    2.2836 H   0  0  0  0  0  0  0  0  0  0  0  0
    9.4226   -3.9309    0.7560 H   0  0  0  0  0  0  0  0  0  0  0  0
    8.1328   -5.4460   -0.7250 H   0  0  0  0  0  0  0  0  0  0  0  0
    5.6697   -5.4270   -0.6770 H   0  0  0  0  0  0  0  0  0  0  0  0
    3.5469   -4.5154    0.2423 H   0  0  0  0  0  0  0  0  0  0  0  0
    2.3762   -2.9834    1.7362 H   0  0  0  0  0  0  0  0  0  0  0  0
    4.1921   -2.1548    5.2447 H   0  0  0  0  0  0  0  0  0  0  0  0
    3.1105   -0.6106    6.8273 H   0  0  0  0  0  0  0  0  0  0  0  0
    1.7609    1.2944    5.9806 H   0  0  0  0  0  0  0  0  0  0  0  0
    1.4994    1.6448    3.5627 H   0  0  0  0  0  0  0  0  0  0  0  0
    4.5761    0.4329    1.1135 H   0  0  0  0  0  0  0  0  0  0  0  0
    1.8983   -0.6856   -2.9904 H   0  0  0  0  0  0  0  0  0  0  0  0
    1.1163    0.8681   -3.1867 H   0  0  0  0  0  0  0  0  0  0  0  0
    3.2578    2.0147   -3.4684 H   0  0  0  0  0  0  0  0  0  0  0  0
    3.1134    0.6750   -4.6092 H   0  0  0  0  0  0  0  0  0  0  0  0
    5.3560    0.6444   -3.5750 H   0  0  0  0  0  0  0  0  0  0  0  0
    4.4450   -0.7829   -3.0832 H   0  0  0  0  0  0  0  0  0  0  0  0
    4.9735    1.7543   -1.4720 H   0  0  0  0  0  0  0  0  0  0  0  0
    5.4869    0.1014   -1.1108 H   0  0  0  0  0  0  0  0  0  0  0  0
   -2.2498   -2.9536   -2.0042 H   0  0  0  0  0  0  0  0  0  0  0  0
   -3.7885   -4.8567   -1.7741 H   0  0  0  0  0  0  0  0  0  0  0  0
   -6.0515   -4.5216   -0.8118 H   0  0  0  0  0  0  0  0  0  0  0  0
   -6.7633   -2.2796   -0.0862 H   0  0  0  0  0  0  0  0  0  0  0  0
   -4.1462    0.1380    1.5674 H   0  0  0  0  0  0  0  0  0  0  0  0
   -4.9687    2.3268    2.2847 H   0  0  0  0  0  0  0  0  0  0  0  0
   -6.4743    4.2826    1.9449 H   0  0  0  0  0  0  0  0  0  0  0  0
   -8.2339    5.4153    0.6400 H   0  0  0  0  0  0  0  0  0  0  0  0
   -9.1630    4.3439   -1.3954 H   0  0  0  0  0  0  0  0  0  0  0  0
   -8.3333    2.1420   -2.1268 H   0  0  0  0  0  0  0  0  0  0  0  0
   -6.8207    0.2056   -1.7979 H   0  0  0  0  0  0  0  0  0  0  0  0
   -3.9261    0.7646   -2.6213 H   0  0  0  0  0  0  0  0  0  0  0  0
    0.8599    2.8885   -2.4310 H   0  0  0  0  0  0  0  0  0  0  0  0
    0.5366    3.1795   -0.7143 H   0  0  0  0  0  0  0  0  0  0  0  0
    0.0230    5.1185   -2.2150 H   0  0  0  0  0  0  0  0  0  0  0  0
   -1.3372    4.6067   -1.2145 H   0  0  0  0  0  0  0  0  0  0  0  0
   -2.0029    5.0099   -3.6140 H   0  0  0  0  0  0  0  0  0  0  0  0
   -0.8804    3.7477   -4.1200 H   0  0  0  0  0  0  0  0  0  0  0  0
   -3.3928    3.4763   -2.4190 H   0  0  0  0  0  0  0  0  0  0  0  0
   -3.0350    2.7092   -3.9733 H   0  0  0  0  0  0  0  0  0  0  0  0
  2  4  1  0  0  0  0
  2  3  1  0  0  0  0
  2  1  2  0  0  0  0
  3 58  1  0  0  0  0
  5  6  1  0  0  0  0
  5  4  1  0  0  0  0
  6  7  1  0  0  0  0
  7  8  2  0  0  0  0
  7 22  1  0  0  0  0
  8 19  1  0  0  0  0
  9  8  1  0  0  0  0
 10  9  1  0  0  0  0
 10 59  1  0  0  0  0
 11 10  2  0  0  0  0
 12 11  1  0  0  0  0
 12 60  1  0  0  0  0
 13 12  2  0  0  0  0
 14 15  2  0  0  0  0
 14 13  1  0  0  0  0
 15 16  1  0  0  0  0
 16 17  2  0  0  0  0
 16 11  1  0  0  0  0
 17 18  1  0  0  0  0
 18  9  2  0  0  0  0
 19 66  1  0  0  0  0
 19 20  2  0  0  0  0
 20 67  1  0  0  0  0
 21 20  1  0  0  0  0
 21 68  1  0  0  0  0
 22 21  2  0  0  0  0
 23 70  1  0  0  0  0
 23  6  2  0  0  0  0
 24 23  1  0  0  0  0
 25 24  2  0  0  0  0
 25 30  1  0  0  0  0
 26 25  1  0  0  0  0
 27 73  1  0  0  0  0
 27 28  1  0  0  0  0
 27 26  1  0  0  0  0
 28 29  1  0  0  0  0
 29 77  1  0  0  0  0
 29 78  1  0  0  0  0
 29 24  1  0  0  0  0
 30  5  2  0  0  0  0
 31 32  1  0  0  0  0
 31 30  1  0  0  0  0
 32 33  1  0  0  0  0
 33  2  1  0  0  0  0
 34 35  1  0  0  0  0
 34 32  2  0  0  0  0
 35 40  2  0  0  0  0
 36 37  2  0  0  0  0
 36 35  1  0  0  0  0
 37 38  1  0  0  0  0
 38 81  1  0  0  0  0
 38 39  2  0  0  0  0
 39 82  1  0  0  0  0
 40 39  1  0  0  0  0
 40 41  1  0  0  0  0
 41 42  2  0  0  0  0
 42 43  1  0  0  0  0
 42 83  1  0  0  0  0
 43 84  1  0  0  0  0
 44 45  1  0  0  0  0
 44 43  2  0  0  0  0
 45 85  1  0  0  0  0
 46 86  1  0  0  0  0
 46 45  2  0  0  0  0
 47 46  1  0  0  0  0
 48 47  2  0  0  0  0
 48 49  1  0  0  0  0
 49 44  1  0  0  0  0
 50 49  2  0  0  0  0
 50 41  1  0  0  0  0
 51 34  1  0  0  0  0
 52 51  2  0  0  0  0
 52 53  1  0  0  0  0
 53 31  2  0  0  0  0
 54 53  1  0  0  0  0
 54 92  1  0  0  0  0
 55 54  1  0  0  0  0
 55 94  1  0  0  0  0
 56 57  1  0  0  0  0
 56 55  1  0  0  0  0
 57 97  1  0  0  0  0
 57 52  1  0  0  0  0
 61 13  1  0  0  0  0
 62 14  1  0  0  0  0
 63 15  1  0  0  0  0
 64 17  1  0  0  0  0
 65 18  1  0  0  0  0
 69 22  1  0  0  0  0
 71 26  1  0  0  0  0
 72 26  1  0  0  0  0
 74 27  1  0  0  0  0
 75 28  1  0  0  0  0
 76 28  1  0  0  0  0
 79 36  1  0  0  0  0
 80 37  1  0  0  0  0
 87 47  1  0  0  0  0
 88 48  1  0  0  0  0
 89 50  1  0  0  0  0
 90 51  1  0  0  0  0
 91 54  1  0  0  0  0
 93 55  1  0  0  0  0
 95 56  1  0  0  0  0
 96 56  1  0  0  0  0
 98 57  1  0  0  0  0
M  END
$$$$
