O=P1(O)OC2=C(CC3=CC(C(F)(F)F)=CC(C(F)(F)F)=C3)C=C4C(CCCC4)=C2C5=C(O1)C(CC6=CC(C(F)(F)F)=CC(C(F)(F)F)=C6)=CC7=C5CCCC7
 OpenBabel09032010373D

 84 88  0  0  0  0  0  0  0  0999 V2000
   -1.5658    2.7226    0.3529 O   0  0  0  0  0  0  0  0  0  0  0  0
   -0.9309    1.5987   -0.4267 P   0  0  0  0  0  0  0  0  0  0  0  0
   -1.3519    1.6410   -2.0008 O   0  0  0  0  0  0  0  0  0  0  0  0
    0.6807    1.6404   -0.5163 O   0  0  0  0  0  0  0  0  0  0  0  0
    1.5292    0.7025    0.0269 C   0  0  0  0  0  0  0  0  0  0  0  0
    2.6559    1.1993    0.7268 C   0  0  0  0  0  0  0  0  0  0  0  0
    2.8591    2.6722    1.0534 C   0  0  0  0  0  0  0  0  0  0  0  0
    1.9961    3.0764    2.2304 C   0  0  0  0  0  0  0  0  0  0  0  0
    2.3144    2.7197    3.5465 C   0  0  0  0  0  0  0  0  0  0  0  0
    1.3591    2.8328    4.5736 C   0  0  0  0  0  0  0  0  0  0  0  0
    1.6836    2.3868    5.9783 C   0  0  0  0  0  0  0  0  0  0  0  0
    3.0210    2.3204    6.2281 F   0  0  0  0  0  0  0  0  0  0  0  0
    1.1889    1.1489    6.2534 F   0  0  0  0  0  0  0  0  0  0  0  0
    1.1688    3.2167    6.9276 F   0  0  0  0  0  0  0  0  0  0  0  0
    0.0558    3.2520    4.2538 C   0  0  0  0  0  0  0  0  0  0  0  0
   -0.2650    3.6130    2.9418 C   0  0  0  0  0  0  0  0  0  0  0  0
   -1.6886    3.7889    2.4571 C   0  0  0  0  0  0  0  0  0  0  0  0
   -2.0240    2.7890    1.5741 F   0  0  0  0  0  0  0  0  0  0  0  0
   -1.8691    4.9432    1.7645 F   0  0  0  0  0  0  0  0  0  0  0  0
   -2.6191    3.7745    3.4491 F   0  0  0  0  0  0  0  0  0  0  0  0
    0.7428    3.6204    1.9700 C   0  0  0  0  0  0  0  0  0  0  0  0
    3.5847    0.2928    1.2485 C   0  0  0  0  0  0  0  0  0  0  0  0
    3.3806   -1.0838    1.1587 C   0  0  0  0  0  0  0  0  0  0  0  0
    2.2367   -1.5732    0.4898 C   0  0  0  0  0  0  0  0  0  0  0  0
    1.9099   -3.0631    0.6057 C   0  0  0  0  0  0  0  0  0  0  0  0
    2.6584   -3.7860    1.7246 C   0  0  0  0  0  0  0  0  0  0  0  0
    4.1399   -3.4670    1.6342 C   0  0  0  0  0  0  0  0  0  0  0  0
    4.3580   -1.9810    1.8834 C   0  0  0  0  0  0  0  0  0  0  0  0
    1.3411   -0.6883   -0.1998 C   0  0  0  0  0  0  0  0  0  0  0  0
    0.2860   -1.2213   -1.0155 C   0  0  0  0  0  0  0  0  0  0  0  0
   -1.0586   -0.9627   -0.6932 C   0  0  0  0  0  0  0  0  0  0  0  0
   -1.3495    0.1225    0.0955 O   0  0  0  0  0  0  0  0  0  0  0  0
   -2.1206   -1.7674   -1.1578 C   0  0  0  0  0  0  0  0  0  0  0  0
   -3.5650   -1.5944   -0.7001 C   0  0  0  0  0  0  0  0  0  0  0  0
   -4.1377   -0.2412   -1.0687 C   0  0  0  0  0  0  0  0  0  0  0  0
   -4.3634    0.7086   -0.0643 C   0  0  0  0  0  0  0  0  0  0  0  0
   -4.4670    2.0701   -0.3876 C   0  0  0  0  0  0  0  0  0  0  0  0
   -4.1245    3.0904    0.6840 C   0  0  0  0  0  0  0  0  0  0  0  0
   -4.5529    4.3484    0.3880 F   0  0  0  0  0  0  0  0  0  0  0  0
   -4.6451    2.7871    1.9047 F   0  0  0  0  0  0  0  0  0  0  0  0
   -2.7648    3.1668    0.8403 F   0  0  0  0  0  0  0  0  0  0  0  0
   -4.4724    2.4656   -1.7324 C   0  0  0  0  0  0  0  0  0  0  0  0
   -4.1922    1.5170   -2.7308 C   0  0  0  0  0  0  0  0  0  0  0  0
   -3.3704    1.9906   -3.9157 C   0  0  0  0  0  0  0  0  0  0  0  0
   -3.8183    3.1366   -4.4895 F   0  0  0  0  0  0  0  0  0  0  0  0
   -3.1982    1.0830   -4.9067 F   0  0  0  0  0  0  0  0  0  0  0  0
   -2.0960    2.2739   -3.4250 F   0  0  0  0  0  0  0  0  0  0  0  0
   -4.1369    0.1543   -2.4115 C   0  0  0  0  0  0  0  0  0  0  0  0
   -1.8315   -2.7548   -2.1050 C   0  0  0  0  0  0  0  0  0  0  0  0
   -0.5381   -2.9051   -2.6192 C   0  0  0  0  0  0  0  0  0  0  0  0
    0.5140   -2.1168   -2.1047 C   0  0  0  0  0  0  0  0  0  0  0  0
    1.8850   -2.1635   -2.7680 C   0  0  0  0  0  0  0  0  0  0  0  0
    1.8776   -2.8059   -4.1543 C   0  0  0  0  0  0  0  0  0  0  0  0
    1.1243   -4.1251   -4.1079 C   0  0  0  0  0  0  0  0  0  0  0  0
   -0.3388   -3.8748   -3.7607 C   0  0  0  0  0  0  0  0  0  0  0  0
   -1.0999    2.4696   -2.4479 H   0  0  0  0  0  0  0  0  0  0  0  0
    2.6364    3.2835    0.1699 H   0  0  0  0  0  0  0  0  0  0  0  0
    3.9113    2.8785    1.2877 H   0  0  0  0  0  0  0  0  0  0  0  0
    3.2910    2.2895    3.7670 H   0  0  0  0  0  0  0  0  0  0  0  0
   -0.7204    3.2437    5.0200 H   0  0  0  0  0  0  0  0  0  0  0  0
    0.4899    3.9164    0.9524 H   0  0  0  0  0  0  0  0  0  0  0  0
    4.4494    0.6632    1.7983 H   0  0  0  0  0  0  0  0  0  0  0  0
    0.8375   -3.1922    0.7947 H   0  0  0  0  0  0  0  0  0  0  0  0
    2.1500   -3.5716   -0.3303 H   0  0  0  0  0  0  0  0  0  0  0  0
    2.4972   -4.8663    1.6361 H   0  0  0  0  0  0  0  0  0  0  0  0
    2.2664   -3.4800    2.7027 H   0  0  0  0  0  0  0  0  0  0  0  0
    4.7040   -4.0527    2.3685 H   0  0  0  0  0  0  0  0  0  0  0  0
    4.5199   -3.7425    0.6423 H   0  0  0  0  0  0  0  0  0  0  0  0
    5.3828   -1.7196    1.5930 H   0  0  0  0  0  0  0  0  0  0  0  0
    4.2600   -1.7856    2.9593 H   0  0  0  0  0  0  0  0  0  0  0  0
   -3.6069   -1.7581    0.3841 H   0  0  0  0  0  0  0  0  0  0  0  0
   -4.2069   -2.3668   -1.1430 H   0  0  0  0  0  0  0  0  0  0  0  0
   -4.2480    0.4219    0.9824 H   0  0  0  0  0  0  0  0  0  0  0  0
   -4.4349    3.5291   -1.9812 H   0  0  0  0  0  0  0  0  0  0  0  0
   -3.8264   -0.5587   -3.1766 H   0  0  0  0  0  0  0  0  0  0  0  0
   -2.6342   -3.3759   -2.5000 H   0  0  0  0  0  0  0  0  0  0  0  0
    2.5905   -2.7166   -2.1443 H   0  0  0  0  0  0  0  0  0  0  0  0
    2.2716   -1.1423   -2.8740 H   0  0  0  0  0  0  0  0  0  0  0  0
    2.9081   -2.9688   -4.4893 H   0  0  0  0  0  0  0  0  0  0  0  0
    1.4057   -2.1318   -4.8803 H   0  0  0  0  0  0  0  0  0  0  0  0
    1.1922   -4.6379   -5.0738 H   0  0  0  0  0  0  0  0  0  0  0  0
    1.5804   -4.7858   -3.3598 H   0  0  0  0  0  0  0  0  0  0  0  0
   -0.8493   -3.4664   -4.6424 H   0  0  0  0  0  0  0  0  0  0  0  0
   -0.8130   -4.8335   -3.5188 H   0  0  0  0  0  0  0  0  0  0  0  0
  2 32  1  0  0  0  0
  3  2  1  0  0  0  0
  4  2  1  0  0  0  0
  4  5  1  0  0  0  0
  5  6  1  0  0  0  0
  6  7  1  0  0  0  0
  6 22  2  0  0  0  0
  7 58  1  0  0  0  0
  7  8  1  0  0  0  0
  8  9  1  0  0  0  0
  9 59  1  0  0  0  0
  9 10  2  0  0  0  0
 10 11  1  0  0  0  0
 11 12  1  0  0  0  0
 11 13  1  0  0  0  0
 11 14  1  0  0  0  0
 15 10  1  0  0  0  0
 15 60  1  0  0  0  0
 16 15  2  0  0  0  0
 17 16  1  0  0  0  0
 17 20  1  0  0  0  0
 19 17  1  0  0  0  0
 21  8  2  0  0  0  0
 21 16  1  0  0  0  0
 22 62  1  0  0  0  0
 23 22  1  0  0  0  0
 23 28  1  0  0  0  0
 24 25  1  0  0  0  0
 24 23  2  0  0  0  0
 25 63  1  0  0  0  0
 25 26  1  0  0  0  0
 26 66  1  0  0  0  0
 27 26  1  0  0  0  0
 27 28  1  0  0  0  0
 27 67  1  0  0  0  0
 28 70  1  0  0  0  0
 29  5  2  0  0  0  0
 29 24  1  0  0  0  0
 30 31  1  0  0  0  0
 30 29  1  0  0  0  0
 31 32  1  0  0  0  0
 33 34  1  0  0  0  0
 33 31  2  0  0  0  0
 34 71  1  0  0  0  0
 35 34  1  0  0  0  0
 35 36  2  0  0  0  0
 36 73  1  0  0  0  0
 37 36  1  0  0  0  0
 37 38  1  0  0  0  0
 38 40  1  0  0  0  0
 39 38  1  0  0  0  0
 41 18  1  0  0  0  0
 42 37  2  0  0  0  0
 43 48  2  0  0  0  0
 43 42  1  0  0  0  0
 44 47  1  0  0  0  0
 44 43  1  0  0  0  0
 45 44  1  0  0  0  0
 46 44  1  0  0  0  0
 48 35  1  0  0  0  0
 49 33  1  0  0  0  0
 50 49  2  0  0  0  0
 50 51  1  0  0  0  0
 51 30  2  0  0  0  0
 52 77  1  0  0  0  0
 52 51  1  0  0  0  0
 53 54  1  0  0  0  0
 53 52  1  0  0  0  0
 54 55  1  0  0  0  0
 54 82  1  0  0  0  0
 55 84  1  0  0  0  0
 55 50  1  0  0  0  0
 56  3  1  0  0  0  0
 57  7  1  0  0  0  0
 61 21  1  0  0  0  0
 64 25  1  0  0  0  0
 65 26  1  0  0  0  0
 68 27  1  0  0  0  0
 69 28  1  0  0  0  0
 72 34  1  0  0  0  0
 74 42  1  0  0  0  0
 75 48  1  0  0  0  0
 76 49  1  0  0  0  0
 78 52  1  0  0  0  0
 79 53  1  0  0  0  0
 80 53  1  0  0  0  0
 81 54  1  0  0  0  0
 83 55  1  0  0  0  0
M  RAD  3   1   3  17   2  38   2
M  END
$$$$
