O=P1(O)OC2=C(CC3=CC(C(F)(F)F)=CC(C(F)(F)F)=C3)C=C4C(CCCC4)=C2C5=C(O1)C(CC6=CC(C(F)(F)F)=CC(C(F)(F)F)=C6)=CC7=C5CCCC7
 OpenBabel09032010373D

 84 89  0  0  0  0  0  0  0  0999 V2000
   -1.4809    2.2345    0.9959 O   0  0  0  0  0  0  0  0  0  0  0  0
   -0.8290    1.3665   -0.0505 P   0  0  0  0  0  0  0  0  0  0  0  0
   -1.0299    1.9583   -1.5544 O   0  0  0  0  0  0  0  0  0  0  0  0
    0.7804    1.2240    0.0165 O   0  0  0  0  0  0  0  0  0  0  0  0
    1.4270    0.1243    0.5337 C   0  0  0  0  0  0  0  0  0  0  0  0
    2.4142    0.3686    1.5244 C   0  0  0  0  0  0  0  0  0  0  0  0
    2.7981    1.7622    1.9971 C   0  0  0  0  0  0  0  0  0  0  0  0
    1.8140    2.4851    2.8941 C   0  0  0  0  0  0  0  0  0  0  0  0
    2.1119    3.7730    3.3631 C   0  0  0  0  0  0  0  0  0  0  0  0
    1.1342    4.5617    4.0002 C   0  0  0  0  0  0  0  0  0  0  0  0
    1.4655    5.9602    4.4596 C   0  0  0  0  0  0  0  0  0  0  0  0
    1.3247    6.8759    3.4622 F   0  0  0  0  0  0  0  0  0  0  0  0
    0.6740    6.3907    5.4805 F   0  0  0  0  0  0  0  0  0  0  0  0
    2.7474    6.0849    4.9037 F   0  0  0  0  0  0  0  0  0  0  0  0
   -0.1801    4.0765    4.0907 C   0  0  0  0  0  0  0  0  0  0  0  0
   -0.4845    2.7963    3.6219 C   0  0  0  0  0  0  0  0  0  0  0  0
   -1.9022    2.3147    3.3860 C   0  0  0  0  0  0  0  0  0  0  0  0
   -2.0064    1.6468    2.1871 F   0  0  0  0  0  0  0  0  0  0  0  0
   -2.8091    3.3224    3.3106 F   0  0  0  0  0  0  0  0  0  0  0  0
   -2.3416    1.4615    4.3497 F   0  0  0  0  0  0  0  0  0  0  0  0
    0.5448    1.9737    3.1493 C   0  0  0  0  0  0  0  0  0  0  0  0
    3.0663   -0.7181    2.1124 C   0  0  0  0  0  0  0  0  0  0  0  0
    2.7569   -2.0182    1.7279 C   0  0  0  0  0  0  0  0  0  0  0  0
    1.8032   -2.2523    0.7095 C   0  0  0  0  0  0  0  0  0  0  0  0
    1.3513   -3.7022    0.5740 C   0  0  0  0  0  0  0  0  0  0  0  0
    2.4918   -4.7261    0.6203 C   0  0  0  0  0  0  0  0  0  0  0  0
    3.7108   -4.2908    1.4328 C   0  0  0  0  0  0  0  0  0  0  0  0
    3.3901   -3.1908    2.4365 C   0  0  0  0  0  0  0  0  0  0  0  0
    1.1610   -1.1759    0.0245 C   0  0  0  0  0  0  0  0  0  0  0  0
    0.2878   -1.4166   -1.0953 C   0  0  0  0  0  0  0  0  0  0  0  0
   -1.0630   -1.0190   -1.0470 C   0  0  0  0  0  0  0  0  0  0  0  0
   -1.4505   -0.1271   -0.0823 O   0  0  0  0  0  0  0  0  0  0  0  0
   -2.0475   -1.5469   -1.9119 C   0  0  0  0  0  0  0  0  0  0  0  0
   -3.5471   -1.3370   -1.7194 C   0  0  0  0  0  0  0  0  0  0  0  0
   -3.9664    0.1155   -1.6867 C   0  0  0  0  0  0  0  0  0  0  0  0
   -4.3076    0.7085   -0.4636 C   0  0  0  0  0  0  0  0  0  0  0  0
   -4.2961    2.1041   -0.3246 C   0  0  0  0  0  0  0  0  0  0  0  0
   -4.0761    2.6900    1.0592 C   0  0  0  0  0  0  0  0  0  0  0  0
   -4.7282    2.0126    2.0431 F   0  0  0  0  0  0  0  0  0  0  0  0
   -4.4718    3.9889    1.1629 F   0  0  0  0  0  0  0  0  0  0  0  0
   -2.7430    2.6569    1.3768 F   0  0  0  0  0  0  0  0  0  0  0  0
   -4.0792    2.9100   -1.4505 C   0  0  0  0  0  0  0  0  0  0  0  0
   -3.6849    2.3123   -2.6608 C   0  0  0  0  0  0  0  0  0  0  0  0
   -2.6763    3.0722   -3.5018 C   0  0  0  0  0  0  0  0  0  0  0  0
   -2.9901    4.3753   -3.7176 F   0  0  0  0  0  0  0  0  0  0  0  0
   -2.3867    2.5214   -4.7052 F   0  0  0  0  0  0  0  0  0  0  0  0
   -1.4830    3.0738   -2.7801 F   0  0  0  0  0  0  0  0  0  0  0  0
   -3.7267    0.9193   -2.8058 C   0  0  0  0  0  0  0  0  0  0  0  0
   -1.6237   -2.3492   -2.9753 C   0  0  0  0  0  0  0  0  0  0  0  0
   -0.2662   -2.6173   -3.1841 C   0  0  0  0  0  0  0  0  0  0  0  0
    0.6911   -2.1418   -2.2603 C   0  0  0  0  0  0  0  0  0  0  0  0
    2.1697   -2.3840   -2.5274 C   0  0  0  0  0  0  0  0  0  0  0  0
    2.4855   -2.7378   -3.9790 C   0  0  0  0  0  0  0  0  0  0  0  0
    1.5661   -3.8537   -4.4465 C   0  0  0  0  0  0  0  0  0  0  0  0
    0.1190   -3.3759   -4.4333 C   0  0  0  0  0  0  0  0  0  0  0  0
   -0.6573    2.8535   -1.6606 H   0  0  0  0  0  0  0  0  0  0  0  0
    3.7636    1.7176    2.5184 H   0  0  0  0  0  0  0  0  0  0  0  0
    2.9681    2.3781    1.1035 H   0  0  0  0  0  0  0  0  0  0  0  0
    3.1055    4.1895    3.1943 H   0  0  0  0  0  0  0  0  0  0  0  0
   -0.9760    4.7197    4.4673 H   0  0  0  0  0  0  0  0  0  0  0  0
    0.2745    0.9686    2.8307 H   0  0  0  0  0  0  0  0  0  0  0  0
    3.8022   -0.5524    2.8975 H   0  0  0  0  0  0  0  0  0  0  0  0
    0.6726   -3.8947    1.4170 H   0  0  0  0  0  0  0  0  0  0  0  0
    0.7547   -3.8927   -0.3203 H   0  0  0  0  0  0  0  0  0  0  0  0
    2.0964   -5.6669    1.0234 H   0  0  0  0  0  0  0  0  0  0  0  0
    2.8221   -4.9610   -0.3989 H   0  0  0  0  0  0  0  0  0  0  0  0
    4.4800   -3.9261    0.7385 H   0  0  0  0  0  0  0  0  0  0  0  0
    4.1458   -5.1568    1.9448 H   0  0  0  0  0  0  0  0  0  0  0  0
    4.3174   -2.8844    2.9344 H   0  0  0  0  0  0  0  0  0  0  0  0
    2.7045   -3.5572    3.2098 H   0  0  0  0  0  0  0  0  0  0  0  0
   -3.8482   -1.8503   -0.7972 H   0  0  0  0  0  0  0  0  0  0  0  0
   -4.1094   -1.8262   -2.5256 H   0  0  0  0  0  0  0  0  0  0  0  0
   -4.3759    0.0887    0.4321 H   0  0  0  0  0  0  0  0  0  0  0  0
   -3.9609    3.9892   -1.3250 H   0  0  0  0  0  0  0  0  0  0  0  0
   -3.3247    0.4635   -3.7118 H   0  0  0  0  0  0  0  0  0  0  0  0
   -2.3558   -2.7499   -3.6752 H   0  0  0  0  0  0  0  0  0  0  0  0
    2.7461   -1.4883   -2.2668 H   0  0  0  0  0  0  0  0  0  0  0  0
    2.5186   -3.2043   -1.8955 H   0  0  0  0  0  0  0  0  0  0  0  0
    2.3599   -1.8559   -4.6198 H   0  0  0  0  0  0  0  0  0  0  0  0
    3.5323   -3.0508   -4.0615 H   0  0  0  0  0  0  0  0  0  0  0  0
    1.6790   -4.7255   -3.7894 H   0  0  0  0  0  0  0  0  0  0  0  0
    1.8399   -4.1760   -5.4573 H   0  0  0  0  0  0  0  0  0  0  0  0
   -0.0455   -2.7126   -5.2922 H   0  0  0  0  0  0  0  0  0  0  0  0
   -0.5387   -4.2448   -4.5573 H   0  0  0  0  0  0  0  0  0  0  0  0
  2  4  1  0  0  0  0
  3  2  1  0  0  0  0
  4  5  1  0  0  0  0
  5  6  1  0  0  0  0
  6  7  1  0  0  0  0
  6 22  2  0  0  0  0
  7 57  1  0  0  0  0
  7  8  1  0  0  0  0
  8 21  2  0  0  0  0
  8  9  1  0  0  0  0
  9 10  2  0  0  0  0
 10 15  1  0  0  0  0
 10 11  1  0  0  0  0
 11 14  1  0  0  0  0
 11 13  1  0  0  0  0
 12 11  1  0  0  0  0
 15 60  1  0  0  0  0
 16 15  2  0  0  0  0
 17 16  1  0  0  0  0
 17 20  1  0  0  0  0
 18 17  1  0  0  0  0
 19 17  1  0  0  0  0
 21 16  1  0  0  0  0
 22 62  1  0  0  0  0
 23 22  1  0  0  0  0
 23 28  1  0  0  0  0
 24 23  2  0  0  0  0
 25 26  1  0  0  0  0
 25 24  1  0  0  0  0
 25 63  1  0  0  0  0
 26 65  1  0  0  0  0
 26 27  1  0  0  0  0
 27 68  1  0  0  0  0
 27 28  1  0  0  0  0
 28 69  1  0  0  0  0
 28 70  1  0  0  0  0
 29  5  2  0  0  0  0
 29 24  1  0  0  0  0
 30 31  1  0  0  0  0
 30 29  1  0  0  0  0
 31 32  1  0  0  0  0
 32  2  1  0  0  0  0
 33 34  1  0  0  0  0
 33 31  2  0  0  0  0
 34 35  1  0  0  0  0
 34 71  1  0  0  0  0
 35 36  2  0  0  0  0
 36 37  1  0  0  0  0
 36 73  1  0  0  0  0
 37 38  1  0  0  0  0
 38 40  1  0  0  0  0
 38 41  1  0  0  0  0
 38 39  1  0  0  0  0
 42 74  1  0  0  0  0
 42 37  2  0  0  0  0
 43 42  1  0  0  0  0
 44 47  1  0  0  0  0
 44 43  1  0  0  0  0
 45 44  1  0  0  0  0
 46 44  1  0  0  0  0
 48 43  2  0  0  0  0
 48 35  1  0  0  0  0
 49 33  1  0  0  0  0
 50 49  2  0  0  0  0
 50 51  1  0  0  0  0
 51 30  2  0  0  0  0
 52 77  1  0  0  0  0
 52 51  1  0  0  0  0
 52 78  1  0  0  0  0
 53 52  1  0  0  0  0
 54 55  1  0  0  0  0
 54 53  1  0  0  0  0
 54 81  1  0  0  0  0
 55 50  1  0  0  0  0
 56  3  1  0  0  0  0
 58  7  1  0  0  0  0
 59  9  1  0  0  0  0
 61 21  1  0  0  0  0
 64 25  1  0  0  0  0
 66 26  1  0  0  0  0
 67 27  1  0  0  0  0
 72 34  1  0  0  0  0
 75 48  1  0  0  0  0
 76 49  1  0  0  0  0
 79 53  1  0  0  0  0
 80 53  1  0  0  0  0
 82 54  1  0  0  0  0
 83 55  1  0  0  0  0
 84 55  1  0  0  0  0
M  RAD  1   1   3
M  END
$$$$
