O=P1(O)OC2=C(C3=C(C(C)C)C=C(C(C)C)C=C3C(C)C)C=C4C(C=CC=C4)=C2C5=C(O1)[C@@]([C@@]6=C(C(C)C)C=C(C(C)C)C=C6C(C)C)=CC7=C5C=CC=C7
 OpenBabel09032010383D

112118  0  0  0  0  0  0  0  0999 V2000
   -0.7797   -0.9008    2.1166 O   0  0  0  0  0  0  0  0  0  0  0  0
   -0.0767   -0.6686    0.8173 P   0  0  0  0  0  0  0  0  0  0  0  0
    0.7672   -1.9632    0.3769 O   0  0  0  0  0  0  0  0  0  0  0  0
    1.0306    0.4949    0.8567 O   0  0  0  0  0  0  0  0  0  0  0  0
    1.5736    0.9734   -0.3126 C   0  0  0  0  0  0  0  0  0  0  0  0
    2.9639    0.8061   -0.4705 C   0  0  0  0  0  0  0  0  0  0  0  0
    3.7965    0.0672    0.5085 C   0  0  0  0  0  0  0  0  0  0  0  0
    4.2385   -1.2624    0.2310 C   0  0  0  0  0  0  0  0  0  0  0  0
    3.8927   -1.9856   -1.0764 C   0  0  0  0  0  0  0  0  0  0  0  0
    5.0632   -1.9023   -2.0629 C   0  0  0  0  0  0  0  0  0  0  0  0
    3.4985   -3.4587   -0.8837 C   0  0  0  0  0  0  0  0  0  0  0  0
    5.0567   -1.9246    1.1694 C   0  0  0  0  0  0  0  0  0  0  0  0
    5.4293   -1.3314    2.3786 C   0  0  0  0  0  0  0  0  0  0  0  0
    6.3040   -2.0538    3.3883 C   0  0  0  0  0  0  0  0  0  0  0  0
    5.6422   -3.3395    3.8911 C   0  0  0  0  0  0  0  0  0  0  0  0
    7.6957   -2.3420    2.8199 C   0  0  0  0  0  0  0  0  0  0  0  0
    4.9893   -0.0323    2.6420 C   0  0  0  0  0  0  0  0  0  0  0  0
    4.1892    0.6864    1.7295 C   0  0  0  0  0  0  0  0  0  0  0  0
    3.7970    2.1233    2.0856 C   0  0  0  0  0  0  0  0  0  0  0  0
    2.9589    2.1834    3.3672 C   0  0  0  0  0  0  0  0  0  0  0  0
    5.0295    3.0279    2.1968 C   0  0  0  0  0  0  0  0  0  0  0  0
    3.5694    1.3880   -1.5854 C   0  0  0  0  0  0  0  0  0  0  0  0
    2.8187    2.0409   -2.5638 C   0  0  0  0  0  0  0  0  0  0  0  0
    1.4143    2.1831   -2.4083 C   0  0  0  0  0  0  0  0  0  0  0  0
    0.7234    2.7625   -3.5041 C   0  0  0  0  0  0  0  0  0  0  0  0
    1.3782    3.2356   -4.6445 C   0  0  0  0  0  0  0  0  0  0  0  0
    2.7557    3.1305   -4.7408 C   0  0  0  0  0  0  0  0  0  0  0  0
    3.4701    2.5308   -3.7084 C   0  0  0  0  0  0  0  0  0  0  0  0
    0.7608    1.7097   -1.2116 C   0  0  0  0  0  0  0  0  0  0  0  0
   -0.6372    1.9663   -0.9144 C   0  0  0  0  0  0  0  0  0  0  0  0
   -1.5119    0.8953   -0.6034 C   0  0  0  0  0  0  0  0  0  0  0  0
   -0.9983   -0.3731   -0.4674 O   0  0  0  0  0  0  0  0  0  0  0  0
   -2.9105    1.0297   -0.5237 C   0  0  0  0  0  0  0  0  0  0  0  0
   -3.8168   -0.1267   -0.3388 C   0  0  0  0  0  0  0  0  0  0  0  0
   -4.3863   -0.4132    0.9360 C   0  0  0  0  0  0  0  0  0  0  0  0
   -4.0695    0.4233    2.1794 C   0  0  0  0  0  0  0  0  0  0  0  0
   -5.1905    1.4320    2.4508 C   0  0  0  0  0  0  0  0  0  0  0  0
   -3.8226   -0.4209    3.4391 C   0  0  0  0  0  0  0  0  0  0  0  0
   -5.2949   -1.4851    1.0571 C   0  0  0  0  0  0  0  0  0  0  0  0
   -5.6317   -2.3002   -0.0272 C   0  0  0  0  0  0  0  0  0  0  0  0
   -6.5983   -3.4623    0.1161 C   0  0  0  0  0  0  0  0  0  0  0  0
   -7.9955   -2.9847    0.5199 C   0  0  0  0  0  0  0  0  0  0  0  0
   -6.0750   -4.5130    1.0989 C   0  0  0  0  0  0  0  0  0  0  0  0
   -5.0558   -2.0213   -1.2684 C   0  0  0  0  0  0  0  0  0  0  0  0
   -4.1629   -0.9456   -1.4528 C   0  0  0  0  0  0  0  0  0  0  0  0
   -3.6057   -0.6981   -2.8577 C   0  0  0  0  0  0  0  0  0  0  0  0
   -2.7441   -1.8716   -3.3354 C   0  0  0  0  0  0  0  0  0  0  0  0
   -4.7224   -0.3948   -3.8633 C   0  0  0  0  0  0  0  0  0  0  0  0
   -3.4553    2.3056   -0.6860 C   0  0  0  0  0  0  0  0  0  0  0  0
   -2.6440    3.4273   -0.8659 C   0  0  0  0  0  0  0  0  0  0  0  0
   -1.2355    3.2779   -0.9606 C   0  0  0  0  0  0  0  0  0  0  0  0
   -0.4845    4.4773   -1.0574 C   0  0  0  0  0  0  0  0  0  0  0  0
   -1.0846    5.7379   -1.1228 C   0  0  0  0  0  0  0  0  0  0  0  0
   -2.4649    5.8472   -1.0772 C   0  0  0  0  0  0  0  0  0  0  0  0
   -3.2387    4.6982   -0.9438 C   0  0  0  0  0  0  0  0  0  0  0  0
    1.2056   -2.3465    1.1580 H   0  0  0  0  0  0  0  0  0  0  0  0
    3.0216   -1.5078   -1.5370 H   0  0  0  0  0  0  0  0  0  0  0  0
    5.3553   -0.8670   -2.2596 H   0  0  0  0  0  0  0  0  0  0  0  0
    4.7928   -2.3593   -3.0210 H   0  0  0  0  0  0  0  0  0  0  0  0
    5.9484   -2.4240   -1.6816 H   0  0  0  0  0  0  0  0  0  0  0  0
    3.0761   -3.8608   -1.8115 H   0  0  0  0  0  0  0  0  0  0  0  0
    2.7502   -3.5777   -0.0955 H   0  0  0  0  0  0  0  0  0  0  0  0
    4.3572   -4.0872   -0.6243 H   0  0  0  0  0  0  0  0  0  0  0  0
    5.4241   -2.9243    0.9484 H   0  0  0  0  0  0  0  0  0  0  0  0
    6.4412   -1.4025    4.2618 H   0  0  0  0  0  0  0  0  0  0  0  0
    6.2462   -3.7992    4.6810 H   0  0  0  0  0  0  0  0  0  0  0  0
    5.5224   -4.0795    3.0923 H   0  0  0  0  0  0  0  0  0  0  0  0
    4.6494   -3.1322    4.3059 H   0  0  0  0  0  0  0  0  0  0  0  0
    7.6572   -3.0362    1.9734 H   0  0  0  0  0  0  0  0  0  0  0  0
    8.3395   -2.7875    3.5860 H   0  0  0  0  0  0  0  0  0  0  0  0
    8.1756   -1.4199    2.4735 H   0  0  0  0  0  0  0  0  0  0  0  0
    5.2872    0.4413    3.5762 H   0  0  0  0  0  0  0  0  0  0  0  0
    3.1786    2.5575    1.2951 H   0  0  0  0  0  0  0  0  0  0  0  0
    2.0790    1.5353    3.2925 H   0  0  0  0  0  0  0  0  0  0  0  0
    3.5288    1.8722    4.2490 H   0  0  0  0  0  0  0  0  0  0  0  0
    2.6074    3.2053    3.5467 H   0  0  0  0  0  0  0  0  0  0  0  0
    5.6225    2.9941    1.2760 H   0  0  0  0  0  0  0  0  0  0  0  0
    5.6824    2.7375    3.0266 H   0  0  0  0  0  0  0  0  0  0  0  0
    4.7279    4.0679    2.3628 H   0  0  0  0  0  0  0  0  0  0  0  0
    4.6487    1.2987   -1.7004 H   0  0  0  0  0  0  0  0  0  0  0  0
   -0.3622    2.8428   -3.4919 H   0  0  0  0  0  0  0  0  0  0  0  0
    0.8035    3.6783   -5.4536 H   0  0  0  0  0  0  0  0  0  0  0  0
    3.2731    3.4938   -5.6238 H   0  0  0  0  0  0  0  0  0  0  0  0
    4.5489    2.4311   -3.8145 H   0  0  0  0  0  0  0  0  0  0  0  0
   -3.1418    0.9818    2.0145 H   0  0  0  0  0  0  0  0  0  0  0  0
   -4.9361    2.0710    3.3034 H   0  0  0  0  0  0  0  0  0  0  0  0
   -5.3654    2.0824    1.5887 H   0  0  0  0  0  0  0  0  0  0  0  0
   -6.1374    0.9299    2.6796 H   0  0  0  0  0  0  0  0  0  0  0  0
   -4.7462   -0.8596    3.8317 H   0  0  0  0  0  0  0  0  0  0  0  0
   -3.1227   -1.2388    3.2438 H   0  0  0  0  0  0  0  0  0  0  0  0
   -3.4001    0.2025    4.2352 H   0  0  0  0  0  0  0  0  0  0  0  0
   -5.7533   -1.6896    2.0219 H   0  0  0  0  0  0  0  0  0  0  0  0
   -6.6974   -3.9573   -0.8592 H   0  0  0  0  0  0  0  0  0  0  0  0
   -8.0010   -2.5274    1.5153 H   0  0  0  0  0  0  0  0  0  0  0  0
   -8.3757   -2.2422   -0.1905 H   0  0  0  0  0  0  0  0  0  0  0  0
   -8.6991   -3.8241    0.5362 H   0  0  0  0  0  0  0  0  0  0  0  0
   -6.0024   -4.1208    2.1191 H   0  0  0  0  0  0  0  0  0  0  0  0
   -6.7416   -5.3818    1.1240 H   0  0  0  0  0  0  0  0  0  0  0  0
   -5.0793   -4.8628    0.8042 H   0  0  0  0  0  0  0  0  0  0  0  0
   -5.3130   -2.6518   -2.1177 H   0  0  0  0  0  0  0  0  0  0  0  0
   -2.9566    0.1818   -2.8627 H   0  0  0  0  0  0  0  0  0  0  0  0
   -1.9401   -2.0840   -2.6223 H   0  0  0  0  0  0  0  0  0  0  0  0
   -3.3294   -2.7886   -3.4616 H   0  0  0  0  0  0  0  0  0  0  0  0
   -2.2821   -1.6395   -4.3011 H   0  0  0  0  0  0  0  0  0  0  0  0
   -4.2979   -0.1271   -4.8372 H   0  0  0  0  0  0  0  0  0  0  0  0
   -5.3359    0.4468   -3.5227 H   0  0  0  0  0  0  0  0  0  0  0  0
   -5.3855   -1.2523   -4.0182 H   0  0  0  0  0  0  0  0  0  0  0  0
   -4.5382    2.4193   -0.6490 H   0  0  0  0  0  0  0  0  0  0  0  0
    0.6037    4.4463   -1.0713 H   0  0  0  0  0  0  0  0  0  0  0  0
   -0.4663    6.6278   -1.2047 H   0  0  0  0  0  0  0  0  0  0  0  0
   -2.9400    6.8230   -1.1282 H   0  0  0  0  0  0  0  0  0  0  0  0
   -4.3206    4.8049   -0.8857 H   0  0  0  0  0  0  0  0  0  0  0  0
  2  4  1  0  0  0  0
  2  1  2  0  0  0  0
  3  2  1  0  0  0  0
  3 56  1  0  0  0  0
  5  4  1  0  0  0  0
  6  5  1  0  0  0  0
  6  7  1  0  0  0  0
  7 18  1  0  0  0  0
  8  7  2  0  0  0  0
  8 12  1  0  0  0  0
  9 11  1  0  0  0  0
  9  8  1  0  0  0  0
 10 60  1  0  0  0  0
 10  9  1  0  0  0  0
 11 63  1  0  0  0  0
 11 62  1  0  0  0  0
 12 13  2  0  0  0  0
 13 17  1  0  0  0  0
 13 14  1  0  0  0  0
 14 15  1  0  0  0  0
 14 65  1  0  0  0  0
 15 68  1  0  0  0  0
 15 66  1  0  0  0  0
 16 14  1  0  0  0  0
 16 70  1  0  0  0  0
 17 72  1  0  0  0  0
 18 19  1  0  0  0  0
 18 17  2  0  0  0  0
 19 21  1  0  0  0  0
 19 20  1  0  0  0  0
 20 76  1  0  0  0  0
 20 75  1  0  0  0  0
 21 79  1  0  0  0  0
 21 78  1  0  0  0  0
 22  6  2  0  0  0  0
 23 24  1  0  0  0  0
 23 22  1  0  0  0  0
 24 29  1  0  0  0  0
 25 81  1  0  0  0  0
 25 24  2  0  0  0  0
 26 25  1  0  0  0  0
 27 26  2  0  0  0  0
 27 28  1  0  0  0  0
 28 23  2  0  0  0  0
 29 30  1  0  0  0  0
 29  5  2  0  0  0  0
 30 31  2  0  0  0  0
 31 33  1  0  0  0  0
 31 32  1  0  0  0  0
 32  2  1  0  0  0  0
 33 34  1  0  0  0  0
 34 35  2  0  0  0  0
 35 39  1  0  0  0  0
 35 36  1  0  0  0  0
 36 37  1  0  0  0  0
 36 38  1  0  0  0  0
 37 88  1  0  0  0  0
 37 86  1  0  0  0  0
 38 89  1  0  0  0  0
 38 91  1  0  0  0  0
 39 92  1  0  0  0  0
 40 41  1  0  0  0  0
 40 39  2  0  0  0  0
 41 42  1  0  0  0  0
 41 43  1  0  0  0  0
 42 96  1  0  0  0  0
 42 94  1  0  0  0  0
 43 98  1  0  0  0  0
 43 97  1  0  0  0  0
 44 40  1  0  0  0  0
 45 44  2  0  0  0  0
 45 34  1  0  0  0  0
 46 45  1  0  0  0  0
 47 46  1  0  0  0  0
 47102  1  0  0  0  0
 48106  1  0  0  0  0
 48 46  1  0  0  0  0
 49108  1  0  0  0  0
 49 33  2  0  0  0  0
 50 49  1  0  0  0  0
 51 30  1  0  0  0  0
 51 50  1  0  0  0  0
 52 51  2  0  0  0  0
 53 54  2  0  0  0  0
 53 52  1  0  0  0  0
 54 55  1  0  0  0  0
 55112  1  0  0  0  0
 55 50  2  0  0  0  0
 57  9  1  0  0  0  0
 58 10  1  0  0  0  0
 59 10  1  0  0  0  0
 61 11  1  0  0  0  0
 64 12  1  0  0  0  0
 67 15  1  0  0  0  0
 69 16  1  0  0  0  0
 71 16  1  0  0  0  0
 73 19  1  0  0  0  0
 74 20  1  0  0  0  0
 77 21  1  0  0  0  0
 80 22  1  0  0  0  0
 82 26  1  0  0  0  0
 83 27  1  0  0  0  0
 84 28  1  0  0  0  0
 85 36  1  0  0  0  0
 87 37  1  0  0  0  0
 90 38  1  0  0  0  0
 93 41  1  0  0  0  0
 95 42  1  0  0  0  0
 99 43  1  0  0  0  0
100 44  1  0  0  0  0
101 46  1  0  0  0  0
103 47  1  0  0  0  0
104 47  1  0  0  0  0
105 48  1  0  0  0  0
107 48  1  0  0  0  0
109 52  1  0  0  0  0
110 53  1  0  0  0  0
111 54  1  0  0  0  0
M  END
$$$$
