O=P1(O)OC2=C(C3=CC(C(C)(C)C)=CC(C(C)(C)C)=C3)C=C4C(C=CC=C4)=C2C5=C(O1)C(C6=CC(C(C)(C)C)=CC(C(C)(C)C)=C6)=CC7=C5C=CC=C7
 OpenBabel09032010383D

106112  0  0  0  0  0  0  0  0999 V2000
    0.7885    0.3754    1.7105 O   0  0  0  0  0  0  0  0  0  0  0  0
    0.0154    0.2053    0.4406 P   0  0  0  0  0  0  0  0  0  0  0  0
   -0.9781    1.4427    0.1726 O   0  0  0  0  0  0  0  0  0  0  0  0
   -0.9708   -1.0680    0.4206 O   0  0  0  0  0  0  0  0  0  0  0  0
   -1.6035   -1.3987   -0.7575 C   0  0  0  0  0  0  0  0  0  0  0  0
   -2.9970   -1.2083   -0.7968 C   0  0  0  0  0  0  0  0  0  0  0  0
   -3.7377   -0.6146    0.3298 C   0  0  0  0  0  0  0  0  0  0  0  0
   -4.3693    0.6304    0.1862 C   0  0  0  0  0  0  0  0  0  0  0  0
   -5.0555    1.2475    1.2467 C   0  0  0  0  0  0  0  0  0  0  0  0
   -5.7231    2.6188    1.0374 C   0  0  0  0  0  0  0  0  0  0  0  0
   -6.7775    2.5175   -0.0862 C   0  0  0  0  0  0  0  0  0  0  0  0
   -4.6533    3.6588    0.6390 C   0  0  0  0  0  0  0  0  0  0  0  0
   -6.4444    3.1640    2.2908 C   0  0  0  0  0  0  0  0  0  0  0  0
   -5.0908    0.5618    2.4739 C   0  0  0  0  0  0  0  0  0  0  0  0
   -4.4746   -0.6945    2.6672 C   0  0  0  0  0  0  0  0  0  0  0  0
   -4.5494   -1.3880    4.0406 C   0  0  0  0  0  0  0  0  0  0  0  0
   -3.8968   -0.4876    5.1121 C   0  0  0  0  0  0  0  0  0  0  0  0
   -6.0258   -1.6393    4.4165 C   0  0  0  0  0  0  0  0  0  0  0  0
   -3.8275   -2.7539    4.0939 C   0  0  0  0  0  0  0  0  0  0  0  0
   -3.8046   -1.2614    1.5729 C   0  0  0  0  0  0  0  0  0  0  0  0
   -3.6707   -1.5767   -1.9614 C   0  0  0  0  0  0  0  0  0  0  0  0
   -2.9856   -2.0784   -3.0717 C   0  0  0  0  0  0  0  0  0  0  0  0
   -1.5748   -2.2486   -3.0268 C   0  0  0  0  0  0  0  0  0  0  0  0
   -0.9567   -2.6577   -4.2360 C   0  0  0  0  0  0  0  0  0  0  0  0
   -1.6846   -2.9503   -5.3926 C   0  0  0  0  0  0  0  0  0  0  0  0
   -3.0640   -2.8244   -5.3887 C   0  0  0  0  0  0  0  0  0  0  0  0
   -3.7086   -2.3841   -4.2369 C   0  0  0  0  0  0  0  0  0  0  0  0
   -0.8454   -1.9532   -1.8172 C   0  0  0  0  0  0  0  0  0  0  0  0
    0.5769   -2.1826   -1.6493 C   0  0  0  0  0  0  0  0  0  0  0  0
    1.4221   -1.1220   -1.2327 C   0  0  0  0  0  0  0  0  0  0  0  0
    0.8660    0.1011   -0.9239 O   0  0  0  0  0  0  0  0  0  0  0  0
    2.8227   -1.2151   -1.1815 C   0  0  0  0  0  0  0  0  0  0  0  0
    3.6734   -0.0756   -0.8133 C   0  0  0  0  0  0  0  0  0  0  0  0
    3.9451    0.2059    0.5340 C   0  0  0  0  0  0  0  0  0  0  0  0
    4.7561    1.2848    0.9115 C   0  0  0  0  0  0  0  0  0  0  0  0
    5.0541    1.6225    2.3831 C   0  0  0  0  0  0  0  0  0  0  0  0
    4.4212    0.6393    3.3941 C   0  0  0  0  0  0  0  0  0  0  0  0
    4.5064    3.0286    2.7096 C   0  0  0  0  0  0  0  0  0  0  0  0
    6.5792    1.6009    2.6255 C   0  0  0  0  0  0  0  0  0  0  0  0
    5.2942    2.0802   -0.1221 C   0  0  0  0  0  0  0  0  0  0  0  0
    5.0513    1.8339   -1.4899 C   0  0  0  0  0  0  0  0  0  0  0  0
    5.6688    2.7498   -2.5613 C   0  0  0  0  0  0  0  0  0  0  0  0
    5.1684    4.1964   -2.3579 C   0  0  0  0  0  0  0  0  0  0  0  0
    7.2083    2.7226   -2.4439 C   0  0  0  0  0  0  0  0  0  0  0  0
    5.3158    2.3448   -4.0106 C   0  0  0  0  0  0  0  0  0  0  0  0
    4.2321    0.7419   -1.8083 C   0  0  0  0  0  0  0  0  0  0  0  0
    3.4123   -2.4374   -1.5061 C   0  0  0  0  0  0  0  0  0  0  0  0
    2.6391   -3.5519   -1.8419 C   0  0  0  0  0  0  0  0  0  0  0  0
    1.2231   -3.4479   -1.8986 C   0  0  0  0  0  0  0  0  0  0  0  0
    0.5172   -4.6511   -2.1544 C   0  0  0  0  0  0  0  0  0  0  0  0
    1.1641   -5.8645   -2.4049 C   0  0  0  0  0  0  0  0  0  0  0  0
    2.5482   -5.9235   -2.3906 C   0  0  0  0  0  0  0  0  0  0  0  0
    3.2797   -4.7748   -2.1038 C   0  0  0  0  0  0  0  0  0  0  0  0
   -1.4755    1.6566    0.9830 H   0  0  0  0  0  0  0  0  0  0  0  0
   -4.3049    1.1318   -0.7790 H   0  0  0  0  0  0  0  0  0  0  0  0
   -7.5358    1.7621    0.1519 H   0  0  0  0  0  0  0  0  0  0  0  0
   -6.3330    2.2447   -1.0496 H   0  0  0  0  0  0  0  0  0  0  0  0
   -7.2934    3.4739   -0.2315 H   0  0  0  0  0  0  0  0  0  0  0  0
   -5.0954    4.6549    0.5201 H   0  0  0  0  0  0  0  0  0  0  0  0
   -3.8694    3.7304    1.4024 H   0  0  0  0  0  0  0  0  0  0  0  0
   -4.1658    3.4102   -0.3100 H   0  0  0  0  0  0  0  0  0  0  0  0
   -7.2464    2.4924    2.6189 H   0  0  0  0  0  0  0  0  0  0  0  0
   -6.9038    4.1392    2.0893 H   0  0  0  0  0  0  0  0  0  0  0  0
   -5.7502    3.3029    3.1278 H   0  0  0  0  0  0  0  0  0  0  0  0
   -5.6121    1.0055    3.3180 H   0  0  0  0  0  0  0  0  0  0  0  0
   -2.8540   -0.2640    4.8570 H   0  0  0  0  0  0  0  0  0  0  0  0
   -3.9029   -0.9744    6.0944 H   0  0  0  0  0  0  0  0  0  0  0  0
   -4.4194    0.4683    5.2261 H   0  0  0  0  0  0  0  0  0  0  0  0
   -6.1055   -2.1659    5.3747 H   0  0  0  0  0  0  0  0  0  0  0  0
   -6.5273   -2.2508    3.6570 H   0  0  0  0  0  0  0  0  0  0  0  0
   -6.5938   -0.7079    4.5160 H   0  0  0  0  0  0  0  0  0  0  0  0
   -4.2588   -3.4665    3.3812 H   0  0  0  0  0  0  0  0  0  0  0  0
   -3.9098   -3.2056    5.0899 H   0  0  0  0  0  0  0  0  0  0  0  0
   -2.7581   -2.6543    3.8738 H   0  0  0  0  0  0  0  0  0  0  0  0
   -3.3088   -2.2252    1.6641 H   0  0  0  0  0  0  0  0  0  0  0  0
   -4.7515   -1.4452   -2.0066 H   0  0  0  0  0  0  0  0  0  0  0  0
    0.1266   -2.7426   -4.3012 H   0  0  0  0  0  0  0  0  0  0  0  0
   -1.1655   -3.2685   -6.2928 H   0  0  0  0  0  0  0  0  0  0  0  0
   -3.6376   -3.0473   -6.2835 H   0  0  0  0  0  0  0  0  0  0  0  0
   -4.7904   -2.2648   -4.2625 H   0  0  0  0  0  0  0  0  0  0  0  0
    3.4911   -0.4362    1.2853 H   0  0  0  0  0  0  0  0  0  0  0  0
    4.6723    0.9166    4.4250 H   0  0  0  0  0  0  0  0  0  0  0  0
    4.7800   -0.3849    3.2392 H   0  0  0  0  0  0  0  0  0  0  0  0
    3.3276    0.6333    3.3220 H   0  0  0  0  0  0  0  0  0  0  0  0
    4.9851    3.8097    2.1088 H   0  0  0  0  0  0  0  0  0  0  0  0
    3.4275    3.0847    2.5221 H   0  0  0  0  0  0  0  0  0  0  0  0
    4.6759    3.2843    3.7620 H   0  0  0  0  0  0  0  0  0  0  0  0
    6.8151    1.8002    3.6775 H   0  0  0  0  0  0  0  0  0  0  0  0
    7.1058    2.3565    2.0326 H   0  0  0  0  0  0  0  0  0  0  0  0
    7.0054    0.6241    2.3674 H   0  0  0  0  0  0  0  0  0  0  0  0
    5.9208    2.9276    0.1494 H   0  0  0  0  0  0  0  0  0  0  0  0
    5.4743    4.6094   -1.3905 H   0  0  0  0  0  0  0  0  0  0  0  0
    4.0740    4.2453   -2.4050 H   0  0  0  0  0  0  0  0  0  0  0  0
    5.5658    4.8644   -3.1310 H   0  0  0  0  0  0  0  0  0  0  0  0
    7.5584    3.1057   -1.4792 H   0  0  0  0  0  0  0  0  0  0  0  0
    7.6749    3.3393   -3.2210 H   0  0  0  0  0  0  0  0  0  0  0  0
    7.5938    1.7018   -2.5520 H   0  0  0  0  0  0  0  0  0  0  0  0
    5.7810    3.0241   -4.7351 H   0  0  0  0  0  0  0  0  0  0  0  0
    5.6693    1.3338   -4.2445 H   0  0  0  0  0  0  0  0  0  0  0  0
    4.2344    2.3785   -4.1873 H   0  0  0  0  0  0  0  0  0  0  0  0
    3.9998    0.5029   -2.8430 H   0  0  0  0  0  0  0  0  0  0  0  0
    4.4983   -2.5204   -1.4674 H   0  0  0  0  0  0  0  0  0  0  0  0
   -0.5714   -4.6637   -2.1489 H   0  0  0  0  0  0  0  0  0  0  0  0
    0.5791   -6.7586   -2.6033 H   0  0  0  0  0  0  0  0  0  0  0  0
    3.0595   -6.8626   -2.5831 H   0  0  0  0  0  0  0  0  0  0  0  0
    4.3656   -4.8463   -2.0716 H   0  0  0  0  0  0  0  0  0  0  0  0
  2  1  2  0  0  0  0
  3  2  1  0  0  0  0
  3 54  1  0  0  0  0
  4  2  1  0  0  0  0
  5  4  1  0  0  0  0
  6  5  1  0  0  0  0
  6  7  1  0  0  0  0
  7 20  1  0  0  0  0
  8  7  2  0  0  0  0
  8  9  1  0  0  0  0
  9 14  2  0  0  0  0
 10  9  1  0  0  0  0
 10 13  1  0  0  0  0
 11 56  1  0  0  0  0
 11 10  1  0  0  0  0
 12 10  1  0  0  0  0
 12 60  1  0  0  0  0
 13 62  1  0  0  0  0
 13 64  1  0  0  0  0
 14 15  1  0  0  0  0
 14 65  1  0  0  0  0
 15 16  1  0  0  0  0
 16 19  1  0  0  0  0
 16 18  1  0  0  0  0
 16 17  1  0  0  0  0
 17 68  1  0  0  0  0
 17 67  1  0  0  0  0
 18 71  1  0  0  0  0
 18 69  1  0  0  0  0
 19 73  1  0  0  0  0
 20 75  1  0  0  0  0
 20 15  2  0  0  0  0
 21  6  2  0  0  0  0
 22 23  1  0  0  0  0
 22 21  1  0  0  0  0
 23 28  1  0  0  0  0
 24 23  2  0  0  0  0
 25 26  2  0  0  0  0
 25 24  1  0  0  0  0
 26 27  1  0  0  0  0
 27 22  2  0  0  0  0
 28 29  1  0  0  0  0
 28  5  2  0  0  0  0
 29 30  2  0  0  0  0
 30 32  1  0  0  0  0
 30 31  1  0  0  0  0
 31  2  1  0  0  0  0
 32 33  1  0  0  0  0
 33 34  2  0  0  0  0
 34 35  1  0  0  0  0
 34 81  1  0  0  0  0
 35 36  1  0  0  0  0
 36 39  1  0  0  0  0
 36 38  1  0  0  0  0
 36 37  1  0  0  0  0
 37 82  1  0  0  0  0
 38 87  1  0  0  0  0
 39 88  1  0  0  0  0
 40 91  1  0  0  0  0
 40 35  2  0  0  0  0
 41 40  1  0  0  0  0
 42 44  1  0  0  0  0
 42 43  1  0  0  0  0
 42 41  1  0  0  0  0
 43 92  1  0  0  0  0
 44 95  1  0  0  0  0
 45 42  1  0  0  0  0
 46 41  2  0  0  0  0
 46 33  1  0  0  0  0
 47102  1  0  0  0  0
 47 32  2  0  0  0  0
 48 47  1  0  0  0  0
 49 48  1  0  0  0  0
 49 29  1  0  0  0  0
 50103  1  0  0  0  0
 50 49  2  0  0  0  0
 51 52  2  0  0  0  0
 51 50  1  0  0  0  0
 52 53  1  0  0  0  0
 53106  1  0  0  0  0
 53 48  2  0  0  0  0
 55  8  1  0  0  0  0
 57 11  1  0  0  0  0
 58 11  1  0  0  0  0
 59 12  1  0  0  0  0
 61 12  1  0  0  0  0
 63 13  1  0  0  0  0
 66 17  1  0  0  0  0
 70 18  1  0  0  0  0
 72 19  1  0  0  0  0
 74 19  1  0  0  0  0
 76 21  1  0  0  0  0
 77 24  1  0  0  0  0
 78 25  1  0  0  0  0
 79 26  1  0  0  0  0
 80 27  1  0  0  0  0
 83 37  1  0  0  0  0
 84 37  1  0  0  0  0
 85 38  1  0  0  0  0
 86 38  1  0  0  0  0
 89 39  1  0  0  0  0
 90 39  1  0  0  0  0
 93 43  1  0  0  0  0
 94 43  1  0  0  0  0
 96 44  1  0  0  0  0
 97 44  1  0  0  0  0
 98 45  1  0  0  0  0
 99 45  1  0  0  0  0
100 45  1  0  0  0  0
101 46  1  0  0  0  0
104 51  1  0  0  0  0
105 52  1  0  0  0  0
M  END
$$$$
