O=P1(O)OC2=C(C3=CC(C(C)(C)C)=CC(C(C)(C)C)=C3)C=C4C(CCCC4)=C2C5=C(O1)C(C6=CC(C(C)(C)C)=CC(C(C)(C)C)=C6)=CC7=C5CCCC7
 OpenBabel09032010373D

114120  0  0  0  0  0  0  0  0999 V2000
    0.5191   -0.8666    2.0000 O   0  0  0  0  0  0  0  0  0  0  0  0
   -0.0008   -0.0276    0.8743 P   0  0  0  0  0  0  0  0  0  0  0  0
   -0.5903    1.3720    1.4093 O   0  0  0  0  0  0  0  0  0  0  0  0
    1.0690    0.4190   -0.2492 O   0  0  0  0  0  0  0  0  0  0  0  0
    1.3814   -0.5112   -1.2165 C   0  0  0  0  0  0  0  0  0  0  0  0
    2.6754   -1.0554   -1.2034 C   0  0  0  0  0  0  0  0  0  0  0  0
    3.7009   -0.6238   -0.2451 C   0  0  0  0  0  0  0  0  0  0  0  0
    4.6049    0.3939   -0.5850 C   0  0  0  0  0  0  0  0  0  0  0  0
    5.6050    0.8191    0.3022 C   0  0  0  0  0  0  0  0  0  0  0  0
    6.6038    1.9372   -0.0493 C   0  0  0  0  0  0  0  0  0  0  0  0
    6.4030    2.5358   -1.4603 C   0  0  0  0  0  0  0  0  0  0  0  0
    6.4620    3.0967    0.9606 C   0  0  0  0  0  0  0  0  0  0  0  0
    8.0445    1.3844    0.0088 C   0  0  0  0  0  0  0  0  0  0  0  0
    5.6719    0.1803    1.5606 C   0  0  0  0  0  0  0  0  0  0  0  0
    4.7863   -0.8431    1.9455 C   0  0  0  0  0  0  0  0  0  0  0  0
    4.8602   -1.5368    3.3178 C   0  0  0  0  0  0  0  0  0  0  0  0
    5.9707   -0.9851    4.2407 C   0  0  0  0  0  0  0  0  0  0  0  0
    3.5214   -1.3637    4.0670 C   0  0  0  0  0  0  0  0  0  0  0  0
    5.1390   -3.0424    3.1187 C   0  0  0  0  0  0  0  0  0  0  0  0
    3.8039   -1.2271    1.0155 C   0  0  0  0  0  0  0  0  0  0  0  0
    2.9790   -2.0411   -2.1448 C   0  0  0  0  0  0  0  0  0  0  0  0
    2.0146   -2.5086   -3.0489 C   0  0  0  0  0  0  0  0  0  0  0  0
    0.7173   -1.9431   -3.0476 C   0  0  0  0  0  0  0  0  0  0  0  0
   -0.3673   -2.5759   -3.9089 C   0  0  0  0  0  0  0  0  0  0  0  0
   -0.0378   -3.9946   -4.3712 C   0  0  0  0  0  0  0  0  0  0  0  0
    1.3509   -4.0205   -4.9880 C   0  0  0  0  0  0  0  0  0  0  0  0
    2.3943   -3.6750   -3.9327 C   0  0  0  0  0  0  0  0  0  0  0  0
    0.4007   -0.8513   -2.1787 C   0  0  0  0  0  0  0  0  0  0  0  0
   -0.8383   -0.1229   -2.2252 C   0  0  0  0  0  0  0  0  0  0  0  0
   -1.6714   -0.0715   -1.0846 C   0  0  0  0  0  0  0  0  0  0  0  0
   -1.2478   -0.6727    0.0795 O   0  0  0  0  0  0  0  0  0  0  0  0
   -2.9328    0.5495   -1.0621 C   0  0  0  0  0  0  0  0  0  0  0  0
   -3.7613    0.5858    0.1537 C   0  0  0  0  0  0  0  0  0  0  0  0
   -3.9747    1.7968    0.8314 C   0  0  0  0  0  0  0  0  0  0  0  0
   -4.7300    1.8615    2.0115 C   0  0  0  0  0  0  0  0  0  0  0  0
   -4.9659    3.1796    2.7723 C   0  0  0  0  0  0  0  0  0  0  0  0
   -6.4806    3.4667    2.8590 C   0  0  0  0  0  0  0  0  0  0  0  0
   -4.3067    4.4115    2.1109 C   0  0  0  0  0  0  0  0  0  0  0  0
   -4.3861    3.0651    4.1988 C   0  0  0  0  0  0  0  0  0  0  0  0
   -5.2779    0.6545    2.4994 C   0  0  0  0  0  0  0  0  0  0  0  0
   -5.0935   -0.5823    1.8551 C   0  0  0  0  0  0  0  0  0  0  0  0
   -5.6840   -1.8990    2.3914 C   0  0  0  0  0  0  0  0  0  0  0  0
   -6.5042   -1.7361    3.6912 C   0  0  0  0  0  0  0  0  0  0  0  0
   -6.6256   -2.5151    1.3339 C   0  0  0  0  0  0  0  0  0  0  0  0
   -4.5412   -2.8922    2.6955 C   0  0  0  0  0  0  0  0  0  0  0  0
   -4.3270   -0.5854    0.6761 C   0  0  0  0  0  0  0  0  0  0  0  0
   -3.3674    1.1800   -2.2291 C   0  0  0  0  0  0  0  0  0  0  0  0
   -2.5555    1.2408   -3.3710 C   0  0  0  0  0  0  0  0  0  0  0  0
   -1.2781    0.6290   -3.3614 C   0  0  0  0  0  0  0  0  0  0  0  0
   -0.3357    0.8711   -4.5334 C   0  0  0  0  0  0  0  0  0  0  0  0
   -0.7218    2.0686   -5.4004 C   0  0  0  0  0  0  0  0  0  0  0  0
   -2.1882    1.9666   -5.7855 C   0  0  0  0  0  0  0  0  0  0  0  0
   -3.0587    2.0596   -4.5387 C   0  0  0  0  0  0  0  0  0  0  0  0
   -1.1282    1.2219    2.2079 H   0  0  0  0  0  0  0  0  0  0  0  0
    4.5004    0.8490   -1.5666 H   0  0  0  0  0  0  0  0  0  0  0  0
    5.4093    2.9855   -1.5704 H   0  0  0  0  0  0  0  0  0  0  0  0
    6.5236    1.7765   -2.2418 H   0  0  0  0  0  0  0  0  0  0  0  0
    7.1371    3.3250   -1.6627 H   0  0  0  0  0  0  0  0  0  0  0  0
    5.4391    3.4915    0.9664 H   0  0  0  0  0  0  0  0  0  0  0  0
    7.1373    3.9234    0.7105 H   0  0  0  0  0  0  0  0  0  0  0  0
    6.7008    2.7879    1.9842 H   0  0  0  0  0  0  0  0  0  0  0  0
    8.1694    0.5370   -0.6757 H   0  0  0  0  0  0  0  0  0  0  0  0
    8.3172    1.0395    1.0121 H   0  0  0  0  0  0  0  0  0  0  0  0
    8.7740    2.1523   -0.2743 H   0  0  0  0  0  0  0  0  0  0  0  0
    6.4433    0.5051    2.2534 H   0  0  0  0  0  0  0  0  0  0  0  0
    5.9795   -1.5080    5.2046 H   0  0  0  0  0  0  0  0  0  0  0  0
    6.9653   -1.1135    3.7978 H   0  0  0  0  0  0  0  0  0  0  0  0
    5.8254    0.0804    4.4537 H   0  0  0  0  0  0  0  0  0  0  0  0
    3.5709   -1.7999    5.0717 H   0  0  0  0  0  0  0  0  0  0  0  0
    3.2632   -0.3037    4.1755 H   0  0  0  0  0  0  0  0  0  0  0  0
    2.6913   -1.8553    3.5492 H   0  0  0  0  0  0  0  0  0  0  0  0
    5.2283   -3.5587    4.0817 H   0  0  0  0  0  0  0  0  0  0  0  0
    4.3393   -3.5415    2.5603 H   0  0  0  0  0  0  0  0  0  0  0  0
    6.0733   -3.2010    2.5670 H   0  0  0  0  0  0  0  0  0  0  0  0
    3.0904   -2.0092    1.2728 H   0  0  0  0  0  0  0  0  0  0  0  0
    3.9741   -2.4858   -2.1436 H   0  0  0  0  0  0  0  0  0  0  0  0
   -0.5312   -1.9684   -4.8000 H   0  0  0  0  0  0  0  0  0  0  0  0
   -1.3101   -2.6169   -3.3508 H   0  0  0  0  0  0  0  0  0  0  0  0
   -0.7829   -4.3244   -5.1038 H   0  0  0  0  0  0  0  0  0  0  0  0
   -0.0861   -4.6909   -3.5245 H   0  0  0  0  0  0  0  0  0  0  0  0
    1.4019   -3.3012   -5.8153 H   0  0  0  0  0  0  0  0  0  0  0  0
    1.5642   -5.0092   -5.4094 H   0  0  0  0  0  0  0  0  0  0  0  0
    3.3476   -3.4646   -4.4324 H   0  0  0  0  0  0  0  0  0  0  0  0
    2.5461   -4.5496   -3.2868 H   0  0  0  0  0  0  0  0  0  0  0  0
   -3.5140    2.6906    0.4163 H   0  0  0  0  0  0  0  0  0  0  0  0
   -6.9292    3.5216    1.8600 H   0  0  0  0  0  0  0  0  0  0  0  0
   -6.6738    4.4203    3.3643 H   0  0  0  0  0  0  0  0  0  0  0  0
   -7.0188    2.6942    3.4189 H   0  0  0  0  0  0  0  0  0  0  0  0
   -3.2176    4.3022    2.0491 H   0  0  0  0  0  0  0  0  0  0  0  0
   -4.6918    4.5805    1.0985 H   0  0  0  0  0  0  0  0  0  0  0  0
   -4.5057    5.3231    2.6872 H   0  0  0  0  0  0  0  0  0  0  0  0
   -3.3155    2.8298    4.1713 H   0  0  0  0  0  0  0  0  0  0  0  0
   -4.5073    4.0042    4.7513 H   0  0  0  0  0  0  0  0  0  0  0  0
   -4.8794    2.2829    4.7861 H   0  0  0  0  0  0  0  0  0  0  0  0
   -5.8644    0.6964    3.4135 H   0  0  0  0  0  0  0  0  0  0  0  0
   -5.8913   -1.3373    4.5080 H   0  0  0  0  0  0  0  0  0  0  0  0
   -6.9030   -2.6999    4.0300 H   0  0  0  0  0  0  0  0  0  0  0  0
   -7.3602   -1.0667    3.5470 H   0  0  0  0  0  0  0  0  0  0  0  0
   -7.0878   -3.4372    1.7055 H   0  0  0  0  0  0  0  0  0  0  0  0
   -6.0989   -2.7724    0.4084 H   0  0  0  0  0  0  0  0  0  0  0  0
   -7.4318   -1.8200    1.0712 H   0  0  0  0  0  0  0  0  0  0  0  0
   -3.8357   -2.4711    3.4216 H   0  0  0  0  0  0  0  0  0  0  0  0
   -3.9707   -3.1560    1.7983 H   0  0  0  0  0  0  0  0  0  0  0  0
   -4.9314   -3.8278    3.1131 H   0  0  0  0  0  0  0  0  0  0  0  0
   -4.1526   -1.5203    0.1452 H   0  0  0  0  0  0  0  0  0  0  0  0
   -4.3398    1.6718   -2.2374 H   0  0  0  0  0  0  0  0  0  0  0  0
    0.6830    1.0412   -4.1657 H   0  0  0  0  0  0  0  0  0  0  0  0
   -0.3189   -0.0091   -5.1776 H   0  0  0  0  0  0  0  0  0  0  0  0
   -0.0956    2.0882   -6.2994 H   0  0  0  0  0  0  0  0  0  0  0  0
   -0.5394    3.0050   -4.8583 H   0  0  0  0  0  0  0  0  0  0  0  0
   -2.3707    1.0147   -6.3002 H   0  0  0  0  0  0  0  0  0  0  0  0
   -2.4570    2.7659   -6.4850 H   0  0  0  0  0  0  0  0  0  0  0  0
   -4.0789    1.7489   -4.7944 H   0  0  0  0  0  0  0  0  0  0  0  0
   -3.1037    3.1085   -4.2179 H   0  0  0  0  0  0  0  0  0  0  0  0
  2  3  1  0  0  0  0
  2  1  2  0  0  0  0
  3 54  1  0  0  0  0
  4  2  1  0  0  0  0
  5  6  1  0  0  0  0
  5  4  1  0  0  0  0
  6  7  1  0  0  0  0
  7 20  1  0  0  0  0
  8  7  2  0  0  0  0
  8  9  1  0  0  0  0
  9 14  2  0  0  0  0
 10 13  1  0  0  0  0
 10  9  1  0  0  0  0
 10 12  1  0  0  0  0
 11 10  1  0  0  0  0
 12 59  1  0  0  0  0
 12 61  1  0  0  0  0
 13 63  1  0  0  0  0
 14 15  1  0  0  0  0
 14 65  1  0  0  0  0
 15 16  1  0  0  0  0
 16 18  1  0  0  0  0
 16 17  1  0  0  0  0
 17 68  1  0  0  0  0
 17 66  1  0  0  0  0
 18 70  1  0  0  0  0
 18 69  1  0  0  0  0
 19 16  1  0  0  0  0
 19 72  1  0  0  0  0
 20 75  1  0  0  0  0
 20 15  2  0  0  0  0
 21 76  1  0  0  0  0
 21  6  2  0  0  0  0
 22 23  2  0  0  0  0
 22 21  1  0  0  0  0
 23 28  1  0  0  0  0
 24 78  1  0  0  0  0
 24 23  1  0  0  0  0
 25 24  1  0  0  0  0
 25 80  1  0  0  0  0
 26 25  1  0  0  0  0
 26 27  1  0  0  0  0
 27 84  1  0  0  0  0
 27 22  1  0  0  0  0
 28  5  2  0  0  0  0
 29 28  1  0  0  0  0
 29 30  2  0  0  0  0
 30 32  1  0  0  0  0
 30 31  1  0  0  0  0
 31  2  1  0  0  0  0
 32 33  1  0  0  0  0
 33 46  2  0  0  0  0
 33 34  1  0  0  0  0
 34 35  2  0  0  0  0
 35 40  1  0  0  0  0
 35 36  1  0  0  0  0
 36 37  1  0  0  0  0
 36 39  1  0  0  0  0
 37 87  1  0  0  0  0
 37 88  1  0  0  0  0
 38 91  1  0  0  0  0
 38 36  1  0  0  0  0
 39 93  1  0  0  0  0
 39 94  1  0  0  0  0
 40 95  1  0  0  0  0
 41 42  1  0  0  0  0
 41 40  2  0  0  0  0
 42 45  1  0  0  0  0
 42 43  1  0  0  0  0
 43 97  1  0  0  0  0
 43 96  1  0  0  0  0
 44 99  1  0  0  0  0
 44 42  1  0  0  0  0
 45104  1  0  0  0  0
 45102  1  0  0  0  0
 46 41  1  0  0  0  0
 47 32  2  0  0  0  0
 48 49  2  0  0  0  0
 48 47  1  0  0  0  0
 49 29  1  0  0  0  0
 50107  1  0  0  0  0
 50 49  1  0  0  0  0
 51110  1  0  0  0  0
 51 50  1  0  0  0  0
 52 51  1  0  0  0  0
 52 53  1  0  0  0  0
 53114  1  0  0  0  0
 53 48  1  0  0  0  0
 55  8  1  0  0  0  0
 56 11  1  0  0  0  0
 57 11  1  0  0  0  0
 58 11  1  0  0  0  0
 60 12  1  0  0  0  0
 62 13  1  0  0  0  0
 64 13  1  0  0  0  0
 67 17  1  0  0  0  0
 71 18  1  0  0  0  0
 73 19  1  0  0  0  0
 74 19  1  0  0  0  0
 77 24  1  0  0  0  0
 79 25  1  0  0  0  0
 81 26  1  0  0  0  0
 82 26  1  0  0  0  0
 83 27  1  0  0  0  0
 85 34  1  0  0  0  0
 86 37  1  0  0  0  0
 89 38  1  0  0  0  0
 90 38  1  0  0  0  0
 92 39  1  0  0  0  0
 98 43  1  0  0  0  0
100 44  1  0  0  0  0
101 44  1  0  0  0  0
103 45  1  0  0  0  0
105 46  1  0  0  0  0
106 47  1  0  0  0  0
108 50  1  0  0  0  0
109 51  1  0  0  0  0
111 52  1  0  0  0  0
112 52  1  0  0  0  0
113 53  1  0  0  0  0
M  END
$$$$
