O=P1(O)OC2=C(CC3=CC=C(OC)C=C3)C=C4C(CCCC4)=C2C5=C(O1)C(CC6=CC=C(OC)C=C6)=CC7=C5CCCC7
 OpenBabel09032010373D

 80 86  0  0  0  0  0  0  0  0999 V2000
    0.4805    1.8285   -3.2282 O   0  0  0  0  0  0  0  0  0  0  0  0
    0.9907    1.3737   -1.8951 P   0  0  0  0  0  0  0  0  0  0  0  0
    2.0261    2.4136   -1.2416 O   0  0  0  0  0  0  0  0  0  0  0  0
    1.8241   -0.0091   -1.9403 O   0  0  0  0  0  0  0  0  0  0  0  0
    2.0268   -0.7578   -0.8047 C   0  0  0  0  0  0  0  0  0  0  0  0
    3.3604   -1.0680   -0.4880 C   0  0  0  0  0  0  0  0  0  0  0  0
    4.5212   -0.6450   -1.3646 C   0  0  0  0  0  0  0  0  0  0  0  0
    5.0017    0.7682   -1.1270 C   0  0  0  0  0  0  0  0  0  0  0  0
    4.9587    1.7117   -2.1620 C   0  0  0  0  0  0  0  0  0  0  0  0
    5.4055    3.0227   -1.9581 C   0  0  0  0  0  0  0  0  0  0  0  0
    5.9129    3.4067   -0.7183 C   0  0  0  0  0  0  0  0  0  0  0  0
    6.3796    4.6486   -0.3872 O   0  0  0  0  0  0  0  0  0  0  0  0
    6.3387    5.6408   -1.4056 C   0  0  0  0  0  0  0  0  0  0  0  0
    5.9700    2.4675    0.3125 C   0  0  0  0  0  0  0  0  0  0  0  0
    5.5221    1.1592    0.1131 C   0  0  0  0  0  0  0  0  0  0  0  0
    3.6168   -1.8049    0.6706 C   0  0  0  0  0  0  0  0  0  0  0  0
    2.5804   -2.1900    1.5260 C   0  0  0  0  0  0  0  0  0  0  0  0
    1.2386   -1.9142    1.1712 C   0  0  0  0  0  0  0  0  0  0  0  0
    0.1548   -2.1335    2.2228 C   0  0  0  0  0  0  0  0  0  0  0  0
    0.5058   -3.2017    3.2547 C   0  0  0  0  0  0  0  0  0  0  0  0
    1.8696   -2.9112    3.8580 C   0  0  0  0  0  0  0  0  0  0  0  0
    2.9424   -2.9566    2.7779 C   0  0  0  0  0  0  0  0  0  0  0  0
    0.9272   -1.2594   -0.0620 C   0  0  0  0  0  0  0  0  0  0  0  0
   -0.4181   -1.1335   -0.5535 C   0  0  0  0  0  0  0  0  0  0  0  0
   -0.9560    0.1406   -0.8326 C   0  0  0  0  0  0  0  0  0  0  0  0
   -0.1248    1.2274   -0.7388 O   0  0  0  0  0  0  0  0  0  0  0  0
   -2.2960    0.3583   -1.1815 C   0  0  0  0  0  0  0  0  0  0  0  0
   -2.8573    1.7453   -1.4188 C   0  0  0  0  0  0  0  0  0  0  0  0
   -4.0014    2.1108   -0.4952 C   0  0  0  0  0  0  0  0  0  0  0  0
   -5.2921    2.3187   -1.0002 C   0  0  0  0  0  0  0  0  0  0  0  0
   -6.3516    2.6496   -0.1460 C   0  0  0  0  0  0  0  0  0  0  0  0
   -6.1340    2.7788    1.2254 C   0  0  0  0  0  0  0  0  0  0  0  0
   -7.0770    3.0932    2.1655 O   0  0  0  0  0  0  0  0  0  0  0  0
   -8.4072    3.2925    1.7031 C   0  0  0  0  0  0  0  0  0  0  0  0
   -4.8481    2.5785    1.7315 C   0  0  0  0  0  0  0  0  0  0  0  0
   -3.7887    2.2492    0.8820 C   0  0  0  0  0  0  0  0  0  0  0  0
   -3.1216   -0.7580   -1.3371 C   0  0  0  0  0  0  0  0  0  0  0  0
   -2.6285   -2.0579   -1.1664 C   0  0  0  0  0  0  0  0  0  0  0  0
   -1.2745   -2.2533   -0.8071 C   0  0  0  0  0  0  0  0  0  0  0  0
   -0.7196   -3.6715   -0.7506 C   0  0  0  0  0  0  0  0  0  0  0  0
   -1.5792   -4.7046   -1.4768 C   0  0  0  0  0  0  0  0  0  0  0  0
   -3.0273   -4.5679   -1.0381 C   0  0  0  0  0  0  0  0  0  0  0  0
   -3.5682   -3.2062   -1.4559 C   0  0  0  0  0  0  0  0  0  0  0  0
    2.4671    2.0705   -0.4435 H   0  0  0  0  0  0  0  0  0  0  0  0
    5.3707   -1.3250   -1.2139 H   0  0  0  0  0  0  0  0  0  0  0  0
    4.2417   -0.7861   -2.4169 H   0  0  0  0  0  0  0  0  0  0  0  0
    4.5604    1.4411   -3.1386 H   0  0  0  0  0  0  0  0  0  0  0  0
    5.3343    3.7169   -2.7889 H   0  0  0  0  0  0  0  0  0  0  0  0
    6.7420    6.5673   -0.9856 H   0  0  0  0  0  0  0  0  0  0  0  0
    5.3094    5.8393   -1.7223 H   0  0  0  0  0  0  0  0  0  0  0  0
    6.9680    5.3595   -2.2564 H   0  0  0  0  0  0  0  0  0  0  0  0
    6.3716    2.7578    1.2805 H   0  0  0  0  0  0  0  0  0  0  0  0
    5.5899    0.4514    0.9355 H   0  0  0  0  0  0  0  0  0  0  0  0
    4.6436   -2.0616    0.9287 H   0  0  0  0  0  0  0  0  0  0  0  0
    0.0100   -1.1743    2.7381 H   0  0  0  0  0  0  0  0  0  0  0  0
   -0.8108   -2.3957    1.7886 H   0  0  0  0  0  0  0  0  0  0  0  0
    0.5068   -4.1938    2.7862 H   0  0  0  0  0  0  0  0  0  0  0  0
   -0.2558   -3.2156    4.0425 H   0  0  0  0  0  0  0  0  0  0  0  0
    1.8594   -1.9221    4.3332 H   0  0  0  0  0  0  0  0  0  0  0  0
    2.1019   -3.6412    4.6414 H   0  0  0  0  0  0  0  0  0  0  0  0
    3.1242   -4.0001    2.4906 H   0  0  0  0  0  0  0  0  0  0  0  0
    3.8765   -2.5656    3.1996 H   0  0  0  0  0  0  0  0  0  0  0  0
   -2.0861    2.5176   -1.3134 H   0  0  0  0  0  0  0  0  0  0  0  0
   -3.1804    1.8032   -2.4667 H   0  0  0  0  0  0  0  0  0  0  0  0
   -5.4854    2.2233   -2.0667 H   0  0  0  0  0  0  0  0  0  0  0  0
   -7.3315    2.7996   -0.5858 H   0  0  0  0  0  0  0  0  0  0  0  0
   -8.8050    2.3827    1.2414 H   0  0  0  0  0  0  0  0  0  0  0  0
   -9.0314    3.5260    2.5710 H   0  0  0  0  0  0  0  0  0  0  0  0
   -8.4620    4.1422    1.0148 H   0  0  0  0  0  0  0  0  0  0  0  0
   -4.6681    2.6787    2.7990 H   0  0  0  0  0  0  0  0  0  0  0  0
   -2.7970    2.0968    1.3026 H   0  0  0  0  0  0  0  0  0  0  0  0
   -4.1634   -0.6171   -1.6236 H   0  0  0  0  0  0  0  0  0  0  0  0
    0.2807   -3.6981   -1.1987 H   0  0  0  0  0  0  0  0  0  0  0  0
   -0.6291   -3.9841    0.2939 H   0  0  0  0  0  0  0  0  0  0  0  0
   -1.2097   -5.7118   -1.2538 H   0  0  0  0  0  0  0  0  0  0  0  0
   -1.5019   -4.5652   -2.5625 H   0  0  0  0  0  0  0  0  0  0  0  0
   -3.0969   -4.6818    0.0511 H   0  0  0  0  0  0  0  0  0  0  0  0
   -3.6381   -5.3610   -1.4837 H   0  0  0  0  0  0  0  0  0  0  0  0
   -4.5261   -3.0369   -0.9494 H   0  0  0  0  0  0  0  0  0  0  0  0
   -3.7632   -3.2168   -2.5361 H   0  0  0  0  0  0  0  0  0  0  0  0
  1  2  2  0  0  0  0
  2  3  1  0  0  0  0
  2 26  1  0  0  0  0
  3 44  1  0  0  0  0
  4  2  1  0  0  0  0
  4  5  1  0  0  0  0
  5  6  2  0  0  0  0
  5 23  1  0  0  0  0
  6 16  1  0  0  0  0
  7 45  1  0  0  0  0
  7  8  1  0  0  0  0
  7  6  1  0  0  0  0
  8 15  2  0  0  0  0
  9 10  2  0  0  0  0
  9  8  1  0  0  0  0
 10 11  1  0  0  0  0
 11 12  1  0  0  0  0
 11 14  2  0  0  0  0
 13 49  1  0  0  0  0
 13 12  1  0  0  0  0
 14 52  1  0  0  0  0
 15 14  1  0  0  0  0
 15 53  1  0  0  0  0
 16 54  1  0  0  0  0
 16 17  2  0  0  0  0
 17 22  1  0  0  0  0
 18 17  1  0  0  0  0
 18 19  1  0  0  0  0
 19 55  1  0  0  0  0
 19 20  1  0  0  0  0
 20 21  1  0  0  0  0
 20 58  1  0  0  0  0
 21 59  1  0  0  0  0
 21 60  1  0  0  0  0
 22 62  1  0  0  0  0
 22 21  1  0  0  0  0
 23 18  2  0  0  0  0
 24 23  1  0  0  0  0
 25 26  1  0  0  0  0
 25 24  2  0  0  0  0
 27 25  1  0  0  0  0
 28 63  1  0  0  0  0
 28 27  1  0  0  0  0
 28 29  1  0  0  0  0
 29 36  1  0  0  0  0
 30 29  2  0  0  0  0
 30 31  1  0  0  0  0
 31 32  2  0  0  0  0
 32 35  1  0  0  0  0
 32 33  1  0  0  0  0
 34 33  1  0  0  0  0
 34 68  1  0  0  0  0
 35 70  1  0  0  0  0
 36 71  1  0  0  0  0
 36 35  2  0  0  0  0
 37 27  2  0  0  0  0
 37 38  1  0  0  0  0
 38 39  2  0  0  0  0
 39 40  1  0  0  0  0
 39 24  1  0  0  0  0
 40 74  1  0  0  0  0
 41 75  1  0  0  0  0
 41 42  1  0  0  0  0
 41 40  1  0  0  0  0
 42 77  1  0  0  0  0
 43 38  1  0  0  0  0
 43 42  1  0  0  0  0
 43 79  1  0  0  0  0
 46  7  1  0  0  0  0
 47  9  1  0  0  0  0
 48 10  1  0  0  0  0
 50 13  1  0  0  0  0
 51 13  1  0  0  0  0
 56 19  1  0  0  0  0
 57 20  1  0  0  0  0
 61 22  1  0  0  0  0
 64 28  1  0  0  0  0
 65 30  1  0  0  0  0
 66 31  1  0  0  0  0
 67 34  1  0  0  0  0
 69 34  1  0  0  0  0
 72 37  1  0  0  0  0
 73 40  1  0  0  0  0
 76 41  1  0  0  0  0
 78 42  1  0  0  0  0
 80 43  1  0  0  0  0
M  END
$$$$
