O=P1(O)OC2=C(CC3=CC=C(OC)C=C3)C=C4C(CCCC4)=C2C5=C(O1)C(CC6=CC=C(OC)C=C6)=CC7=C5CCCC7
 OpenBabel09032010373D

 80 86  0  0  0  0  0  0  0  0999 V2000
   -0.2187    4.1083    0.7707 O   0  0  0  0  0  0  0  0  0  0  0  0
    0.1426    2.7416    1.2663 P   0  0  0  0  0  0  0  0  0  0  0  0
    0.6678    2.8336    2.7856 O   0  0  0  0  0  0  0  0  0  0  0  0
    1.3489    2.0212    0.4786 O   0  0  0  0  0  0  0  0  0  0  0  0
    1.5949    0.6874    0.7060 C   0  0  0  0  0  0  0  0  0  0  0  0
    2.8486    0.3562    1.2440 C   0  0  0  0  0  0  0  0  0  0  0  0
    3.8977    1.4024    1.5521 C   0  0  0  0  0  0  0  0  0  0  0  0
    5.0076    1.4716    0.5273 C   0  0  0  0  0  0  0  0  0  0  0  0
    4.7748    2.0253   -0.7374 C   0  0  0  0  0  0  0  0  0  0  0  0
    5.8014    2.0848   -1.6829 C   0  0  0  0  0  0  0  0  0  0  0  0
    7.0747    1.5955   -1.3858 C   0  0  0  0  0  0  0  0  0  0  0  0
    7.9855    1.7166   -2.3990 O   0  0  0  0  0  0  0  0  0  0  0  0
    9.2984    1.2344   -2.1438 C   0  0  0  0  0  0  0  0  0  0  0  0
    7.3135    1.0413   -0.1285 C   0  0  0  0  0  0  0  0  0  0  0  0
    6.2862    0.9790    0.8209 C   0  0  0  0  0  0  0  0  0  0  0  0
    3.1326   -0.9898    1.4812 C   0  0  0  0  0  0  0  0  0  0  0  0
    2.1723   -1.9816    1.2530 C   0  0  0  0  0  0  0  0  0  0  0  0
    0.9148   -1.6327    0.7015 C   0  0  0  0  0  0  0  0  0  0  0  0
   -0.1910   -2.6828    0.7115 C   0  0  0  0  0  0  0  0  0  0  0  0
    0.3256   -4.1179    0.6657 C   0  0  0  0  0  0  0  0  0  0  0  0
    1.3524   -4.3336    1.7647 C   0  0  0  0  0  0  0  0  0  0  0  0
    2.5487   -3.4141    1.5562 C   0  0  0  0  0  0  0  0  0  0  0  0
    0.6248   -0.2786    0.3408 C   0  0  0  0  0  0  0  0  0  0  0  0
   -0.5706    0.1117   -0.3595 C   0  0  0  0  0  0  0  0  0  0  0  0
   -1.4496    1.0682    0.2003 C   0  0  0  0  0  0  0  0  0  0  0  0
   -1.0830    1.6982    1.3650 O   0  0  0  0  0  0  0  0  0  0  0  0
   -2.6950    1.3935   -0.3558 C   0  0  0  0  0  0  0  0  0  0  0  0
   -3.6505    2.3646    0.3036 C   0  0  0  0  0  0  0  0  0  0  0  0
   -4.8848    1.7055    0.8806 C   0  0  0  0  0  0  0  0  0  0  0  0
   -4.7908    0.8811    2.0085 C   0  0  0  0  0  0  0  0  0  0  0  0
   -5.9319    0.2689    2.5338 C   0  0  0  0  0  0  0  0  0  0  0  0
   -7.1834    0.4658    1.9464 C   0  0  0  0  0  0  0  0  0  0  0  0
   -8.2142   -0.1931    2.5586 O   0  0  0  0  0  0  0  0  0  0  0  0
   -9.5053   -0.0513    1.9788 C   0  0  0  0  0  0  0  0  0  0  0  0
   -7.2846    1.2879    0.8246 C   0  0  0  0  0  0  0  0  0  0  0  0
   -6.1430    1.9034    0.2958 C   0  0  0  0  0  0  0  0  0  0  0  0
   -3.0539    0.7890   -1.5628 C   0  0  0  0  0  0  0  0  0  0  0  0
   -2.1865   -0.0924   -2.2208 C   0  0  0  0  0  0  0  0  0  0  0  0
   -0.9338   -0.4073   -1.6436 C   0  0  0  0  0  0  0  0  0  0  0  0
    0.0543   -1.2586   -2.4325 C   0  0  0  0  0  0  0  0  0  0  0  0
   -0.2592   -1.3509   -3.9248 C   0  0  0  0  0  0  0  0  0  0  0  0
   -1.7198   -1.7203   -4.1209 C   0  0  0  0  0  0  0  0  0  0  0  0
   -2.6116   -0.6120   -3.5754 C   0  0  0  0  0  0  0  0  0  0  0  0
    0.3518    3.6637    3.1868 H   0  0  0  0  0  0  0  0  0  0  0  0
    3.4512    2.3990    1.6557 H   0  0  0  0  0  0  0  0  0  0  0  0
    4.3170    1.1907    2.5453 H   0  0  0  0  0  0  0  0  0  0  0  0
    3.7912    2.4112   -0.9967 H   0  0  0  0  0  0  0  0  0  0  0  0
    5.6038    2.5157   -2.6613 H   0  0  0  0  0  0  0  0  0  0  0  0
    9.2922    0.1572   -1.9472 H   0  0  0  0  0  0  0  0  0  0  0  0
    9.7683    1.7844   -1.3217 H   0  0  0  0  0  0  0  0  0  0  0  0
    9.8978    1.4048   -3.0433 H   0  0  0  0  0  0  0  0  0  0  0  0
    8.2856    0.6475    0.1473 H   0  0  0  0  0  0  0  0  0  0  0  0
    6.4944    0.5411    1.7945 H   0  0  0  0  0  0  0  0  0  0  0  0
    4.1079   -1.2691    1.8768 H   0  0  0  0  0  0  0  0  0  0  0  0
   -0.7619   -2.5385    1.6388 H   0  0  0  0  0  0  0  0  0  0  0  0
   -0.9020   -2.5584   -0.1061 H   0  0  0  0  0  0  0  0  0  0  0  0
   -0.5110   -4.8137    0.7950 H   0  0  0  0  0  0  0  0  0  0  0  0
    0.7744   -4.3272   -0.3133 H   0  0  0  0  0  0  0  0  0  0  0  0
    1.6852   -5.3775    1.7742 H   0  0  0  0  0  0  0  0  0  0  0  0
    0.8940   -4.1339    2.7416 H   0  0  0  0  0  0  0  0  0  0  0  0
    3.1782   -3.4549    2.4535 H   0  0  0  0  0  0  0  0  0  0  0  0
    3.1504   -3.7862    0.7172 H   0  0  0  0  0  0  0  0  0  0  0  0
   -3.1594    2.9348    1.1014 H   0  0  0  0  0  0  0  0  0  0  0  0
   -3.9379    3.1206   -0.4395 H   0  0  0  0  0  0  0  0  0  0  0  0
   -3.8277    0.7051    2.4827 H   0  0  0  0  0  0  0  0  0  0  0  0
   -5.8425   -0.3710    3.4082 H   0  0  0  0  0  0  0  0  0  0  0  0
   -9.8401    0.9907    2.0132 H   0  0  0  0  0  0  0  0  0  0  0  0
   -9.5233   -0.4393    0.9550 H   0  0  0  0  0  0  0  0  0  0  0  0
  -10.2057   -0.6460    2.5729 H   0  0  0  0  0  0  0  0  0  0  0  0
   -8.2349    1.4727    0.3356 H   0  0  0  0  0  0  0  0  0  0  0  0
   -6.2461    2.5394   -0.5807 H   0  0  0  0  0  0  0  0  0  0  0  0
   -4.0150    1.0290   -2.0161 H   0  0  0  0  0  0  0  0  0  0  0  0
    1.0650   -0.8460   -2.3305 H   0  0  0  0  0  0  0  0  0  0  0  0
    0.0635   -2.2749   -2.0282 H   0  0  0  0  0  0  0  0  0  0  0  0
   -0.0457   -0.3934   -4.4163 H   0  0  0  0  0  0  0  0  0  0  0  0
    0.3873   -2.1035   -4.3900 H   0  0  0  0  0  0  0  0  0  0  0  0
   -1.9347   -1.8786   -5.1836 H   0  0  0  0  0  0  0  0  0  0  0  0
   -1.9357   -2.6645   -3.6050 H   0  0  0  0  0  0  0  0  0  0  0  0
   -2.6002    0.2317   -4.2775 H   0  0  0  0  0  0  0  0  0  0  0  0
   -3.6424   -0.9829   -3.5222 H   0  0  0  0  0  0  0  0  0  0  0  0
  1  2  2  0  0  0  0
  2 26  1  0  0  0  0
  2  3  1  0  0  0  0
  3 44  1  0  0  0  0
  4  5  1  0  0  0  0
  4  2  1  0  0  0  0
  5  6  2  0  0  0  0
  6 16  1  0  0  0  0
  6  7  1  0  0  0  0
  7 45  1  0  0  0  0
  7 46  1  0  0  0  0
  8 15  1  0  0  0  0
  8  7  1  0  0  0  0
  9  8  2  0  0  0  0
 10 11  2  0  0  0  0
 10  9  1  0  0  0  0
 11 14  1  0  0  0  0
 12 13  1  0  0  0  0
 12 11  1  0  0  0  0
 13 49  1  0  0  0  0
 13 50  1  0  0  0  0
 14 52  1  0  0  0  0
 14 15  2  0  0  0  0
 15 53  1  0  0  0  0
 16 54  1  0  0  0  0
 17 16  2  0  0  0  0
 17 22  1  0  0  0  0
 18 19  1  0  0  0  0
 18 17  1  0  0  0  0
 19 55  1  0  0  0  0
 20 19  1  0  0  0  0
 20 57  1  0  0  0  0
 20 21  1  0  0  0  0
 21 59  1  0  0  0  0
 21 60  1  0  0  0  0
 22 21  1  0  0  0  0
 22 61  1  0  0  0  0
 23 18  2  0  0  0  0
 23  5  1  0  0  0  0
 24 25  2  0  0  0  0
 24 23  1  0  0  0  0
 25 26  1  0  0  0  0
 27 25  1  0  0  0  0
 27 28  1  0  0  0  0
 28 29  1  0  0  0  0
 28 63  1  0  0  0  0
 29 30  2  0  0  0  0
 30 65  1  0  0  0  0
 30 31  1  0  0  0  0
 31 66  1  0  0  0  0
 32 31  2  0  0  0  0
 32 33  1  0  0  0  0
 34 67  1  0  0  0  0
 34 33  1  0  0  0  0
 34 69  1  0  0  0  0
 35 32  1  0  0  0  0
 36 35  2  0  0  0  0
 36 29  1  0  0  0  0
 37 27  2  0  0  0  0
 38 39  2  0  0  0  0
 38 37  1  0  0  0  0
 39 24  1  0  0  0  0
 40 73  1  0  0  0  0
 40 74  1  0  0  0  0
 40 39  1  0  0  0  0
 41 40  1  0  0  0  0
 42 41  1  0  0  0  0
 42 78  1  0  0  0  0
 42 43  1  0  0  0  0
 43 80  1  0  0  0  0
 43 38  1  0  0  0  0
 47  9  1  0  0  0  0
 48 10  1  0  0  0  0
 51 13  1  0  0  0  0
 56 19  1  0  0  0  0
 58 20  1  0  0  0  0
 62 22  1  0  0  0  0
 64 28  1  0  0  0  0
 68 34  1  0  0  0  0
 70 35  1  0  0  0  0
 71 36  1  0  0  0  0
 72 37  1  0  0  0  0
 75 41  1  0  0  0  0
 76 41  1  0  0  0  0
 77 42  1  0  0  0  0
 79 43  1  0  0  0  0
M  END
$$$$
