O=P1(O)OC2=C(C3=CC=C(C4CCCCC4)C=C3)C=C5C(CCCC5)=C2C6=C(O1)C(C7=CC=C(C8CCCCC8)C=C7)=CC9=C6CCCC9
 OpenBabel09032010373D

 98106  0  0  0  0  0  0  0  0999 V2000
    0.2629    1.5624    1.3964 O   0  0  0  0  0  0  0  0  0  0  0  0
   -0.0491    0.6086    0.2859 P   0  0  0  0  0  0  0  0  0  0  0  0
   -0.6267    1.3764   -1.0061 O   0  0  0  0  0  0  0  0  0  0  0  0
   -1.2035   -0.4648    0.6224 O   0  0  0  0  0  0  0  0  0  0  0  0
   -1.4247   -1.5003   -0.2607 C   0  0  0  0  0  0  0  0  0  0  0  0
   -2.6495   -1.4847   -0.9642 C   0  0  0  0  0  0  0  0  0  0  0  0
   -3.6373   -0.4032   -0.7978 C   0  0  0  0  0  0  0  0  0  0  0  0
   -4.0015    0.4097   -1.8818 C   0  0  0  0  0  0  0  0  0  0  0  0
   -4.9250    1.4489   -1.7270 C   0  0  0  0  0  0  0  0  0  0  0  0
   -5.5143    1.7035   -0.4819 C   0  0  0  0  0  0  0  0  0  0  0  0
   -6.5089    2.8412   -0.3335 C   0  0  0  0  0  0  0  0  0  0  0  0
   -7.8491    2.3885    0.2640 C   0  0  0  0  0  0  0  0  0  0  0  0
   -8.8861    3.5157    0.2407 C   0  0  0  0  0  0  0  0  0  0  0  0
   -8.2753    4.9131    0.3616 C   0  0  0  0  0  0  0  0  0  0  0  0
   -6.9670    4.8965    1.1398 C   0  0  0  0  0  0  0  0  0  0  0  0
   -5.9095    4.0147    0.4686 C   0  0  0  0  0  0  0  0  0  0  0  0
   -5.1515    0.8957    0.6040 C   0  0  0  0  0  0  0  0  0  0  0  0
   -4.2294   -0.1438    0.4461 C   0  0  0  0  0  0  0  0  0  0  0  0
   -2.8998   -2.5278   -1.8587 C   0  0  0  0  0  0  0  0  0  0  0  0
   -1.9452   -3.5220   -2.0756 C   0  0  0  0  0  0  0  0  0  0  0  0
   -0.7231   -3.5163   -1.3589 C   0  0  0  0  0  0  0  0  0  0  0  0
    0.2866   -4.5661   -1.7930 C   0  0  0  0  0  0  0  0  0  0  0  0
    0.3701   -4.6266   -3.3199 C   0  0  0  0  0  0  0  0  0  0  0  0
   -0.9898   -4.8164   -4.0023 C   0  0  0  0  0  0  0  0  0  0  0  0
   -2.1907   -4.6235   -3.0755 C   0  0  0  0  0  0  0  0  0  0  0  0
   -0.4465   -2.5217   -0.3772 C   0  0  0  0  0  0  0  0  0  0  0  0
    0.7481   -2.4938    0.4344 C   0  0  0  0  0  0  0  0  0  0  0  0
    1.5813   -1.3469    0.4237 C   0  0  0  0  0  0  0  0  0  0  0  0
    1.1833   -0.2463   -0.3053 O   0  0  0  0  0  0  0  0  0  0  0  0
    2.8132   -1.2620    1.0966 C   0  0  0  0  0  0  0  0  0  0  0  0
    3.6772   -0.0740    1.0156 C   0  0  0  0  0  0  0  0  0  0  0  0
    3.9349    0.7099    2.1464 C   0  0  0  0  0  0  0  0  0  0  0  0
    4.7606    1.8368    2.0664 C   0  0  0  0  0  0  0  0  0  0  0  0
    5.3583    2.2173    0.8535 C   0  0  0  0  0  0  0  0  0  0  0  0
    6.2418    3.4581    0.8235 C   0  0  0  0  0  0  0  0  0  0  0  0
    7.7128    3.1634    0.4760 C   0  0  0  0  0  0  0  0  0  0  0  0
    8.0347    3.1572   -1.0165 C   0  0  0  0  0  0  0  0  0  0  0  0
    7.4965    4.3950   -1.7224 C   0  0  0  0  0  0  0  0  0  0  0  0
    6.0011    4.5738   -1.4944 C   0  0  0  0  0  0  0  0  0  0  0  0
    5.6515    4.6111   -0.0088 C   0  0  0  0  0  0  0  0  0  0  0  0
    5.0982    1.4328   -0.2748 C   0  0  0  0  0  0  0  0  0  0  0  0
    4.2714    0.3054   -0.1948 C   0  0  0  0  0  0  0  0  0  0  0  0
    3.2048   -2.3570    1.8692 C   0  0  0  0  0  0  0  0  0  0  0  0
    2.3949   -3.4948    1.9912 C   0  0  0  0  0  0  0  0  0  0  0  0
    1.1609   -3.5601    1.2987 C   0  0  0  0  0  0  0  0  0  0  0  0
    0.2482   -4.7529    1.5414 C   0  0  0  0  0  0  0  0  0  0  0  0
    0.5437   -5.5024    2.8391 C   0  0  0  0  0  0  0  0  0  0  0  0
    2.0220   -5.8489    2.8980 C   0  0  0  0  0  0  0  0  0  0  0  0
    2.8544   -4.5740    2.9463 C   0  0  0  0  0  0  0  0  0  0  0  0
   -1.2799    2.0448   -0.7306 H   0  0  0  0  0  0  0  0  0  0  0  0
   -3.5533    0.2455   -2.8602 H   0  0  0  0  0  0  0  0  0  0  0  0
   -5.1785    2.0582   -2.5921 H   0  0  0  0  0  0  0  0  0  0  0  0
   -6.7330    3.2187   -1.3421 H   0  0  0  0  0  0  0  0  0  0  0  0
   -7.7087    2.0633    1.3030 H   0  0  0  0  0  0  0  0  0  0  0  0
   -8.2461    1.5204   -0.2767 H   0  0  0  0  0  0  0  0  0  0  0  0
   -9.6009    3.3512    1.0562 H   0  0  0  0  0  0  0  0  0  0  0  0
   -9.4673    3.4659   -0.6882 H   0  0  0  0  0  0  0  0  0  0  0  0
   -8.9940    5.5877    0.8405 H   0  0  0  0  0  0  0  0  0  0  0  0
   -8.0907    5.3171   -0.6419 H   0  0  0  0  0  0  0  0  0  0  0  0
   -7.1581    4.5239    2.1542 H   0  0  0  0  0  0  0  0  0  0  0  0
   -6.5782    5.9151    1.2503 H   0  0  0  0  0  0  0  0  0  0  0  0
   -5.3047    4.6269   -0.2135 H   0  0  0  0  0  0  0  0  0  0  0  0
   -5.2154    3.6663    1.2437 H   0  0  0  0  0  0  0  0  0  0  0  0
   -5.5778    1.0682    1.5897 H   0  0  0  0  0  0  0  0  0  0  0  0
   -3.9689   -0.7528    1.3101 H   0  0  0  0  0  0  0  0  0  0  0  0
   -3.8386   -2.5513   -2.4094 H   0  0  0  0  0  0  0  0  0  0  0  0
    1.2886   -4.3535   -1.4092 H   0  0  0  0  0  0  0  0  0  0  0  0
   -0.0226   -5.5441   -1.4075 H   0  0  0  0  0  0  0  0  0  0  0  0
    1.0517   -5.4296   -3.6241 H   0  0  0  0  0  0  0  0  0  0  0  0
    0.8161   -3.6926   -3.6878 H   0  0  0  0  0  0  0  0  0  0  0  0
   -1.0454   -5.8138   -4.4549 H   0  0  0  0  0  0  0  0  0  0  0  0
   -1.0572   -4.1056   -4.8362 H   0  0  0  0  0  0  0  0  0  0  0  0
   -2.3896   -5.5498   -2.5217 H   0  0  0  0  0  0  0  0  0  0  0  0
   -3.0830   -4.4207   -3.6792 H   0  0  0  0  0  0  0  0  0  0  0  0
    3.4771    0.4591    3.1011 H   0  0  0  0  0  0  0  0  0  0  0  0
    4.9234    2.4221    2.9692 H   0  0  0  0  0  0  0  0  0  0  0  0
    6.2615    3.8302    1.8589 H   0  0  0  0  0  0  0  0  0  0  0  0
    8.0378    2.2179    0.9273 H   0  0  0  0  0  0  0  0  0  0  0  0
    8.3281    3.9481    0.9378 H   0  0  0  0  0  0  0  0  0  0  0  0
    9.1222    3.1101   -1.1492 H   0  0  0  0  0  0  0  0  0  0  0  0
    7.6336    2.2555   -1.4892 H   0  0  0  0  0  0  0  0  0  0  0  0
    8.0291    5.2824   -1.3584 H   0  0  0  0  0  0  0  0  0  0  0  0
    7.6988    4.3227   -2.7971 H   0  0  0  0  0  0  0  0  0  0  0  0
    5.6732    5.5087   -1.9644 H   0  0  0  0  0  0  0  0  0  0  0  0
    5.4493    3.7726   -1.9957 H   0  0  0  0  0  0  0  0  0  0  0  0
    4.5625    4.6618    0.1126 H   0  0  0  0  0  0  0  0  0  0  0  0
    6.0471    5.5528    0.3961 H   0  0  0  0  0  0  0  0  0  0  0  0
    5.5225    1.6778   -1.2419 H   0  0  0  0  0  0  0  0  0  0  0  0
    4.0888   -0.2785   -1.0950 H   0  0  0  0  0  0  0  0  0  0  0  0
    4.1511   -2.3151    2.4083 H   0  0  0  0  0  0  0  0  0  0  0  0
   -0.7987   -4.4303    1.5720 H   0  0  0  0  0  0  0  0  0  0  0  0
    0.3669   -5.4596    0.7171 H   0  0  0  0  0  0  0  0  0  0  0  0
   -0.0591   -6.4165    2.8808 H   0  0  0  0  0  0  0  0  0  0  0  0
    0.2651   -4.8895    3.7054 H   0  0  0  0  0  0  0  0  0  0  0  0
    2.2364   -6.4648    3.7785 H   0  0  0  0  0  0  0  0  0  0  0  0
    2.2981   -6.4425    2.0172 H   0  0  0  0  0  0  0  0  0  0  0  0
    3.9015   -4.8276    2.7410 H   0  0  0  0  0  0  0  0  0  0  0  0
    2.8085   -4.1617    3.9627 H   0  0  0  0  0  0  0  0  0  0  0  0
  2  4  1  0  0  0  0
  2  1  2  0  0  0  0
  3 50  1  0  0  0  0
  3  2  1  0  0  0  0
  5  4  1  0  0  0  0
  6  7  1  0  0  0  0
  6  5  2  0  0  0  0
  7 18  2  0  0  0  0
  8  9  2  0  0  0  0
  8  7  1  0  0  0  0
  9 10  1  0  0  0  0
 10 11  1  0  0  0  0
 10 17  2  0  0  0  0
 11 12  1  0  0  0  0
 11 16  1  0  0  0  0
 12 54  1  0  0  0  0
 13 12  1  0  0  0  0
 13 14  1  0  0  0  0
 13 56  1  0  0  0  0
 14 58  1  0  0  0  0
 14 15  1  0  0  0  0
 15 61  1  0  0  0  0
 15 60  1  0  0  0  0
 16 15  1  0  0  0  0
 16 63  1  0  0  0  0
 17 64  1  0  0  0  0
 18 17  1  0  0  0  0
 18 65  1  0  0  0  0
 19  6  1  0  0  0  0
 20 19  2  0  0  0  0
 20 21  1  0  0  0  0
 21 26  2  0  0  0  0
 22 67  1  0  0  0  0
 22 68  1  0  0  0  0
 22 21  1  0  0  0  0
 23 22  1  0  0  0  0
 24 23  1  0  0  0  0
 24 25  1  0  0  0  0
 25 73  1  0  0  0  0
 25 20  1  0  0  0  0
 26  5  1  0  0  0  0
 26 27  1  0  0  0  0
 27 45  1  0  0  0  0
 28 27  2  0  0  0  0
 28 30  1  0  0  0  0
 29  2  1  0  0  0  0
 29 28  1  0  0  0  0
 30 43  2  0  0  0  0
 31 30  1  0  0  0  0
 31 32  2  0  0  0  0
 32 75  1  0  0  0  0
 33 32  1  0  0  0  0
 33 76  1  0  0  0  0
 34 33  2  0  0  0  0
 35 34  1  0  0  0  0
 35 77  1  0  0  0  0
 36 35  1  0  0  0  0
 36 78  1  0  0  0  0
 36 79  1  0  0  0  0
 37 36  1  0  0  0  0
 38 39  1  0  0  0  0
 38 82  1  0  0  0  0
 38 37  1  0  0  0  0
 39 40  1  0  0  0  0
 40 86  1  0  0  0  0
 40 87  1  0  0  0  0
 40 35  1  0  0  0  0
 41 42  2  0  0  0  0
 41 34  1  0  0  0  0
 42 31  1  0  0  0  0
 43 44  1  0  0  0  0
 43 90  1  0  0  0  0
 44 49  1  0  0  0  0
 45 46  1  0  0  0  0
 45 44  2  0  0  0  0
 46 91  1  0  0  0  0
 46 47  1  0  0  0  0
 47 93  1  0  0  0  0
 47 48  1  0  0  0  0
 47 94  1  0  0  0  0
 48 49  1  0  0  0  0
 48 95  1  0  0  0  0
 49 98  1  0  0  0  0
 51  8  1  0  0  0  0
 52  9  1  0  0  0  0
 53 11  1  0  0  0  0
 55 12  1  0  0  0  0
 57 13  1  0  0  0  0
 59 14  1  0  0  0  0
 62 16  1  0  0  0  0
 66 19  1  0  0  0  0
 69 23  1  0  0  0  0
 70 23  1  0  0  0  0
 71 24  1  0  0  0  0
 72 24  1  0  0  0  0
 74 25  1  0  0  0  0
 80 37  1  0  0  0  0
 81 37  1  0  0  0  0
 83 38  1  0  0  0  0
 84 39  1  0  0  0  0
 85 39  1  0  0  0  0
 88 41  1  0  0  0  0
 89 42  1  0  0  0  0
 92 46  1  0  0  0  0
 96 48  1  0  0  0  0
 97 49  1  0  0  0  0
M  END
$$$$
