O=P1(O)OC2=C(C3=CC=C(C)C=C3)C=C4C(C=CC=C4)=C2C5=C(O1)C(C6=CC=C(C)C=C6)=CC7=C5C=CC=C7
 OpenBabel09032010373D

 64 70  0  0  0  0  0  0  0  0999 V2000
    0.6523   -2.6439   -1.3947 O   0  0  0  0  0  0  0  0  0  0  0  0
    0.0279   -1.7337   -0.3838 P   0  0  0  0  0  0  0  0  0  0  0  0
   -0.8208   -2.5557    0.7087 O   0  0  0  0  0  0  0  0  0  0  0  0
   -1.0478   -0.6982   -0.9867 O   0  0  0  0  0  0  0  0  0  0  0  0
   -1.5444    0.2951   -0.1718 C   0  0  0  0  0  0  0  0  0  0  0  0
   -2.9044    0.2013    0.1746 C   0  0  0  0  0  0  0  0  0  0  0  0
   -3.7448   -0.9312   -0.2462 C   0  0  0  0  0  0  0  0  0  0  0  0
   -4.2435   -1.8395    0.7001 C   0  0  0  0  0  0  0  0  0  0  0  0
   -5.0277   -2.9282    0.3084 C   0  0  0  0  0  0  0  0  0  0  0  0
   -5.3407   -3.1265   -1.0399 C   0  0  0  0  0  0  0  0  0  0  0  0
   -6.1551   -4.3118   -1.4661 C   0  0  0  0  0  0  0  0  0  0  0  0
   -4.8369   -2.2336   -1.9912 C   0  0  0  0  0  0  0  0  0  0  0  0
   -4.0529   -1.1453   -1.5973 C   0  0  0  0  0  0  0  0  0  0  0  0
   -3.4467    1.2168    0.9630 C   0  0  0  0  0  0  0  0  0  0  0  0
   -2.6623    2.2751    1.4306 C   0  0  0  0  0  0  0  0  0  0  0  0
   -1.2849    2.3505    1.0883 C   0  0  0  0  0  0  0  0  0  0  0  0
   -0.5473    3.3975    1.6982 C   0  0  0  0  0  0  0  0  0  0  0  0
   -1.1394    4.3509    2.5312 C   0  0  0  0  0  0  0  0  0  0  0  0
   -2.4956    4.2808    2.8035 C   0  0  0  0  0  0  0  0  0  0  0  0
   -3.2497    3.2440    2.2621 C   0  0  0  0  0  0  0  0  0  0  0  0
   -0.6981    1.3637    0.2135 C   0  0  0  0  0  0  0  0  0  0  0  0
    0.6710    1.4158   -0.2613 C   0  0  0  0  0  0  0  0  0  0  0  0
    1.5333    0.3068   -0.0636 C   0  0  0  0  0  0  0  0  0  0  0  0
    1.0305   -0.8422    0.5083 O   0  0  0  0  0  0  0  0  0  0  0  0
    2.9085    0.3272   -0.3505 C   0  0  0  0  0  0  0  0  0  0  0  0
    3.7907   -0.8097   -0.0601 C   0  0  0  0  0  0  0  0  0  0  0  0
    4.5668   -0.8311    1.1077 C   0  0  0  0  0  0  0  0  0  0  0  0
    5.4133   -1.9083    1.3857 C   0  0  0  0  0  0  0  0  0  0  0  0
    5.5092   -2.9824    0.4951 C   0  0  0  0  0  0  0  0  0  0  0  0
    6.3861   -4.1572    0.8106 C   0  0  0  0  0  0  0  0  0  0  0  0
    4.7277   -2.9726   -0.6647 C   0  0  0  0  0  0  0  0  0  0  0  0
    3.8836   -1.8938   -0.9425 C   0  0  0  0  0  0  0  0  0  0  0  0
    3.4424    1.4842   -0.9195 C   0  0  0  0  0  0  0  0  0  0  0  0
    2.6365    2.5834   -1.2281 C   0  0  0  0  0  0  0  0  0  0  0  0
    1.2490    2.5588   -0.9241 C   0  0  0  0  0  0  0  0  0  0  0  0
    0.4934    3.6792   -1.3548 C   0  0  0  0  0  0  0  0  0  0  0  0
    1.0758    4.7820   -1.9856 C   0  0  0  0  0  0  0  0  0  0  0  0
    2.4399    4.7969   -2.2265 C   0  0  0  0  0  0  0  0  0  0  0  0
    3.2132    3.7008   -1.8554 C   0  0  0  0  0  0  0  0  0  0  0  0
   -1.3495   -3.2471    0.2703 H   0  0  0  0  0  0  0  0  0  0  0  0
   -4.0079   -1.7106    1.7554 H   0  0  0  0  0  0  0  0  0  0  0  0
   -5.3922   -3.6182    1.0660 H   0  0  0  0  0  0  0  0  0  0  0  0
   -5.4982   -5.1624   -1.6723 H   0  0  0  0  0  0  0  0  0  0  0  0
   -6.8687   -4.5965   -0.6857 H   0  0  0  0  0  0  0  0  0  0  0  0
   -6.7339   -4.0843   -2.3675 H   0  0  0  0  0  0  0  0  0  0  0  0
   -5.0517   -2.3764   -3.0482 H   0  0  0  0  0  0  0  0  0  0  0  0
   -3.6755   -0.4624   -2.3565 H   0  0  0  0  0  0  0  0  0  0  0  0
   -4.5010    1.1646    1.2336 H   0  0  0  0  0  0  0  0  0  0  0  0
    0.5268    3.4803    1.5415 H   0  0  0  0  0  0  0  0  0  0  0  0
   -0.5323    5.1394    2.9677 H   0  0  0  0  0  0  0  0  0  0  0  0
   -2.9642    5.0169    3.4508 H   0  0  0  0  0  0  0  0  0  0  0  0
   -4.3082    3.1896    2.5102 H   0  0  0  0  0  0  0  0  0  0  0  0
    4.5074   -0.0074    1.8160 H   0  0  0  0  0  0  0  0  0  0  0  0
    5.9937   -1.9026    2.3053 H   0  0  0  0  0  0  0  0  0  0  0  0
    6.7589   -4.6239   -0.1073 H   0  0  0  0  0  0  0  0  0  0  0  0
    5.8235   -4.9012    1.3828 H   0  0  0  0  0  0  0  0  0  0  0  0
    7.2591   -3.8473    1.3945 H   0  0  0  0  0  0  0  0  0  0  0  0
    4.7633   -3.8064   -1.3620 H   0  0  0  0  0  0  0  0  0  0  0  0
    3.2847   -1.9135   -1.8516 H   0  0  0  0  0  0  0  0  0  0  0  0
    4.5074    1.5098   -1.1500 H   0  0  0  0  0  0  0  0  0  0  0  0
   -0.5859    3.7037   -1.2139 H   0  0  0  0  0  0  0  0  0  0  0  0
    0.4557    5.6205   -2.2910 H   0  0  0  0  0  0  0  0  0  0  0  0
    2.9011    5.6492   -2.7177 H   0  0  0  0  0  0  0  0  0  0  0  0
    4.2792    3.7201   -2.0755 H   0  0  0  0  0  0  0  0  0  0  0  0
  1  2  2  0  0  0  0
  2 24  1  0  0  0  0
  2  3  1  0  0  0  0
  4  2  1  0  0  0  0
  4  5  1  0  0  0  0
  5  6  2  0  0  0  0
  5 21  1  0  0  0  0
  6 14  1  0  0  0  0
  7  6  1  0  0  0  0
  7  8  2  0  0  0  0
  8 41  1  0  0  0  0
  9  8  1  0  0  0  0
  9 42  1  0  0  0  0
 10  9  2  0  0  0  0
 11 10  1  0  0  0  0
 11 44  1  0  0  0  0
 12 13  2  0  0  0  0
 12 10  1  0  0  0  0
 13  7  1  0  0  0  0
 14 48  1  0  0  0  0
 14 15  2  0  0  0  0
 15 20  1  0  0  0  0
 16 15  1  0  0  0  0
 16 17  1  0  0  0  0
 17 18  2  0  0  0  0
 18 19  1  0  0  0  0
 18 50  1  0  0  0  0
 19 51  1  0  0  0  0
 20 52  1  0  0  0  0
 20 19  2  0  0  0  0
 21 16  2  0  0  0  0
 22 23  2  0  0  0  0
 22 21  1  0  0  0  0
 23 24  1  0  0  0  0
 25 23  1  0  0  0  0
 25 26  1  0  0  0  0
 26 27  2  0  0  0  0
 27 28  1  0  0  0  0
 27 53  1  0  0  0  0
 28 54  1  0  0  0  0
 29 30  1  0  0  0  0
 29 28  2  0  0  0  0
 30 56  1  0  0  0  0
 30 57  1  0  0  0  0
 31 29  1  0  0  0  0
 32 31  2  0  0  0  0
 32 26  1  0  0  0  0
 33 25  2  0  0  0  0
 34 35  1  0  0  0  0
 34 33  1  0  0  0  0
 35 22  1  0  0  0  0
 36 61  1  0  0  0  0
 36 35  2  0  0  0  0
 37 36  1  0  0  0  0
 38 37  2  0  0  0  0
 38 39  1  0  0  0  0
 39 34  2  0  0  0  0
 40  3  1  0  0  0  0
 43 11  1  0  0  0  0
 45 11  1  0  0  0  0
 46 12  1  0  0  0  0
 47 13  1  0  0  0  0
 49 17  1  0  0  0  0
 55 30  1  0  0  0  0
 58 31  1  0  0  0  0
 59 32  1  0  0  0  0
 60 33  1  0  0  0  0
 62 37  1  0  0  0  0
 63 38  1  0  0  0  0
 64 39  1  0  0  0  0
M  END
$$$$
