O=P1(O)OC2=C(C3=CC(COC)=CC=C3)C=C4C(C=CC=C4)=C2C5=C(O1)C(C6=CC=CC(COC)=C6)=CC7=C5C=CC=C7
 OpenBabel09032010383D

 72 78  0  0  0  0  0  0  0  0999 V2000
    1.1927    1.3190    2.6273 O   0  0  0  0  0  0  0  0  0  0  0  0
    0.3912    0.9482    1.4193 P   0  0  0  0  0  0  0  0  0  0  0  0
   -0.1667    2.2299    0.6312 O   0  0  0  0  0  0  0  0  0  0  0  0
    1.1678    0.1854    0.2400 O   0  0  0  0  0  0  0  0  0  0  0  0
    1.7714   -0.9935    0.5963 C   0  0  0  0  0  0  0  0  0  0  0  0
    3.1749   -0.9555    0.7714 C   0  0  0  0  0  0  0  0  0  0  0  0
    3.9265    0.3229    0.6471 C   0  0  0  0  0  0  0  0  0  0  0  0
    3.5851    1.2657   -0.3413 C   0  0  0  0  0  0  0  0  0  0  0  0
    3.9754    2.6093   -0.2560 C   0  0  0  0  0  0  0  0  0  0  0  0
    3.2906    3.6223   -1.1357 C   0  0  0  0  0  0  0  0  0  0  0  0
    1.8998    3.6569   -0.7573 O   0  0  0  0  0  0  0  0  0  0  0  0
    1.1441    4.4865   -1.6381 C   0  0  0  0  0  0  0  0  0  0  0  0
    4.8965    2.9779    0.7247 C   0  0  0  0  0  0  0  0  0  0  0  0
    5.3646    2.0276    1.6336 C   0  0  0  0  0  0  0  0  0  0  0  0
    4.8624    0.7212    1.6132 C   0  0  0  0  0  0  0  0  0  0  0  0
    3.7837   -2.1477    1.1531 C   0  0  0  0  0  0  0  0  0  0  0  0
    3.0273   -3.3004    1.4143 C   0  0  0  0  0  0  0  0  0  0  0  0
    1.6108   -3.2941    1.2481 C   0  0  0  0  0  0  0  0  0  0  0  0
    0.9210   -4.4654    1.6448 C   0  0  0  0  0  0  0  0  0  0  0  0
    1.5854   -5.6032    2.1079 C   0  0  0  0  0  0  0  0  0  0  0  0
    2.9676   -5.6020    2.2084 C   0  0  0  0  0  0  0  0  0  0  0  0
    3.6819   -4.4558    1.8705 C   0  0  0  0  0  0  0  0  0  0  0  0
    0.9405   -2.1204    0.7494 C   0  0  0  0  0  0  0  0  0  0  0  0
   -0.4656   -2.0208    0.3493 C   0  0  0  0  0  0  0  0  0  0  0  0
   -1.3119   -0.9408    0.7699 C   0  0  0  0  0  0  0  0  0  0  0  0
   -0.8803    0.0021    1.6884 O   0  0  0  0  0  0  0  0  0  0  0  0
   -2.6674   -0.8167    0.3965 C   0  0  0  0  0  0  0  0  0  0  0  0
   -3.4828    0.3532    0.7611 C   0  0  0  0  0  0  0  0  0  0  0  0
   -4.5592    0.2570    1.6504 C   0  0  0  0  0  0  0  0  0  0  0  0
   -5.3070    1.3892    1.9823 C   0  0  0  0  0  0  0  0  0  0  0  0
   -4.9841    2.6330    1.4341 C   0  0  0  0  0  0  0  0  0  0  0  0
   -3.9220    2.7579    0.5305 C   0  0  0  0  0  0  0  0  0  0  0  0
   -3.5154    4.1192    0.0121 C   0  0  0  0  0  0  0  0  0  0  0  0
   -2.7879    4.0771   -1.2211 O   0  0  0  0  0  0  0  0  0  0  0  0
   -3.6470    3.9804   -2.3505 C   0  0  0  0  0  0  0  0  0  0  0  0
   -3.1923    1.6082    0.1997 C   0  0  0  0  0  0  0  0  0  0  0  0
   -3.2257   -1.8138   -0.4001 C   0  0  0  0  0  0  0  0  0  0  0  0
   -2.4583   -2.8727   -0.8836 C   0  0  0  0  0  0  0  0  0  0  0  0
   -1.0772   -2.9690   -0.5570 C   0  0  0  0  0  0  0  0  0  0  0  0
   -0.3639   -3.9941   -1.2350 C   0  0  0  0  0  0  0  0  0  0  0  0
   -0.9782   -4.9141   -2.0906 C   0  0  0  0  0  0  0  0  0  0  0  0
   -2.3382   -4.8293   -2.3291 C   0  0  0  0  0  0  0  0  0  0  0  0
   -3.0704   -3.8068   -1.7370 C   0  0  0  0  0  0  0  0  0  0  0  0
    0.5857    2.8089    0.3733 H   0  0  0  0  0  0  0  0  0  0  0  0
    2.8881    0.9904   -1.1331 H   0  0  0  0  0  0  0  0  0  0  0  0
    3.7263    4.6191   -1.0044 H   0  0  0  0  0  0  0  0  0  0  0  0
    3.3910    3.3258   -2.1866 H   0  0  0  0  0  0  0  0  0  0  0  0
    1.5370    5.5076   -1.6304 H   0  0  0  0  0  0  0  0  0  0  0  0
    1.1659    4.0795   -2.6534 H   0  0  0  0  0  0  0  0  0  0  0  0
    0.1084    4.5071   -1.2904 H   0  0  0  0  0  0  0  0  0  0  0  0
    5.2255    4.0097    0.8178 H   0  0  0  0  0  0  0  0  0  0  0  0
    6.0645    2.3219    2.4118 H   0  0  0  0  0  0  0  0  0  0  0  0
    5.1531    0.0429    2.4119 H   0  0  0  0  0  0  0  0  0  0  0  0
    4.8632   -2.1707    1.2926 H   0  0  0  0  0  0  0  0  0  0  0  0
   -0.1667   -4.5037    1.6092 H   0  0  0  0  0  0  0  0  0  0  0  0
    1.0153   -6.4830    2.3940 H   0  0  0  0  0  0  0  0  0  0  0  0
    3.4907   -6.4831    2.5693 H   0  0  0  0  0  0  0  0  0  0  0  0
    4.7642   -4.4679    1.9859 H   0  0  0  0  0  0  0  0  0  0  0  0
   -4.8097   -0.6996    2.1037 H   0  0  0  0  0  0  0  0  0  0  0  0
   -6.1319    1.3038    2.6852 H   0  0  0  0  0  0  0  0  0  0  0  0
   -5.5604    3.5070    1.7289 H   0  0  0  0  0  0  0  0  0  0  0  0
   -2.8488    4.5707    0.7556 H   0  0  0  0  0  0  0  0  0  0  0  0
   -4.3866    4.7775   -0.0916 H   0  0  0  0  0  0  0  0  0  0  0  0
   -4.2864    4.8657   -2.4202 H   0  0  0  0  0  0  0  0  0  0  0  0
   -4.2605    3.0760   -2.3034 H   0  0  0  0  0  0  0  0  0  0  0  0
   -3.0257    3.9311   -3.2488 H   0  0  0  0  0  0  0  0  0  0  0  0
   -2.3630    1.6938   -0.5003 H   0  0  0  0  0  0  0  0  0  0  0  0
   -4.2726   -1.7264   -0.6899 H   0  0  0  0  0  0  0  0  0  0  0  0
    0.7143   -4.0849   -1.1223 H   0  0  0  0  0  0  0  0  0  0  0  0
   -0.3839   -5.6863   -2.5718 H   0  0  0  0  0  0  0  0  0  0  0  0
   -2.8251   -5.5372   -2.9937 H   0  0  0  0  0  0  0  0  0  0  0  0
   -4.1315   -3.7296   -1.9682 H   0  0  0  0  0  0  0  0  0  0  0  0
  2 26  1  0  0  0  0
  2  1  2  0  0  0  0
  3  2  1  0  0  0  0
  4  5  1  0  0  0  0
  4  2  1  0  0  0  0
  5 23  2  0  0  0  0
  5  6  1  0  0  0  0
  6 16  2  0  0  0  0
  7  6  1  0  0  0  0
  7 15  2  0  0  0  0
  8  9  2  0  0  0  0
  8  7  1  0  0  0  0
  9 13  1  0  0  0  0
 10 46  1  0  0  0  0
 10 11  1  0  0  0  0
 10  9  1  0  0  0  0
 12 48  1  0  0  0  0
 12 50  1  0  0  0  0
 12 11  1  0  0  0  0
 13 51  1  0  0  0  0
 13 14  2  0  0  0  0
 14 52  1  0  0  0  0
 15 14  1  0  0  0  0
 15 53  1  0  0  0  0
 16 54  1  0  0  0  0
 16 17  1  0  0  0  0
 17 22  1  0  0  0  0
 18 17  2  0  0  0  0
 18 19  1  0  0  0  0
 19 20  2  0  0  0  0
 20 21  1  0  0  0  0
 20 56  1  0  0  0  0
 21 57  1  0  0  0  0
 22 58  1  0  0  0  0
 22 21  2  0  0  0  0
 23 18  1  0  0  0  0
 24 23  1  0  0  0  0
 24 25  2  0  0  0  0
 25 26  1  0  0  0  0
 27 28  1  0  0  0  0
 27 25  1  0  0  0  0
 28 29  2  0  0  0  0
 29 30  1  0  0  0  0
 29 59  1  0  0  0  0
 30 60  1  0  0  0  0
 31 61  1  0  0  0  0
 31 30  2  0  0  0  0
 32 31  1  0  0  0  0
 33 32  1  0  0  0  0
 33 62  1  0  0  0  0
 34 33  1  0  0  0  0
 35 65  1  0  0  0  0
 35 34  1  0  0  0  0
 36 32  2  0  0  0  0
 36 28  1  0  0  0  0
 37 27  2  0  0  0  0
 38 39  1  0  0  0  0
 38 37  1  0  0  0  0
 39 24  1  0  0  0  0
 40 69  1  0  0  0  0
 40 39  2  0  0  0  0
 41 40  1  0  0  0  0
 42 41  2  0  0  0  0
 42 43  1  0  0  0  0
 43 38  2  0  0  0  0
 44  3  1  0  0  0  0
 45  8  1  0  0  0  0
 47 10  1  0  0  0  0
 49 12  1  0  0  0  0
 55 19  1  0  0  0  0
 63 33  1  0  0  0  0
 64 35  1  0  0  0  0
 66 35  1  0  0  0  0
 67 36  1  0  0  0  0
 68 37  1  0  0  0  0
 70 41  1  0  0  0  0
 71 42  1  0  0  0  0
 72 43  1  0  0  0  0
M  END
$$$$
