O=P1(O)OC2=C(CC3=CC=C(C(F)(F)F)C=C3C(F)(F)F)C=C4C(C=CC=C4)=C2C5=C(O1)C(CC6=C(C(F)(F)F)C=C(C(F)(F)F)C=C6)=CC7=C5C=CC=C7
 OpenBabel09032010373D

 76 82  0  0  0  0  0  0  0  0999 V2000
    0.8442   -2.2224    3.1358 O   0  0  0  0  0  0  0  0  0  0  0  0
    0.1980   -1.2060    2.2467 P   0  0  0  0  0  0  0  0  0  0  0  0
   -0.4579   -0.0167    3.1035 O   0  0  0  0  0  0  0  0  0  0  0  0
    1.1968   -0.4299    1.2538 O   0  0  0  0  0  0  0  0  0  0  0  0
    1.5938   -1.0997    0.1231 C   0  0  0  0  0  0  0  0  0  0  0  0
    2.9368   -1.4945    0.0577 C   0  0  0  0  0  0  0  0  0  0  0  0
    3.9137   -1.2202    1.1818 C   0  0  0  0  0  0  0  0  0  0  0  0
    5.0724   -0.3158    0.7898 C   0  0  0  0  0  0  0  0  0  0  0  0
    6.3183   -0.9169    0.5208 C   0  0  0  0  0  0  0  0  0  0  0  0
    7.4159   -0.1592    0.1111 C   0  0  0  0  0  0  0  0  0  0  0  0
    7.2997    1.2234   -0.0500 C   0  0  0  0  0  0  0  0  0  0  0  0
    8.4792    2.0541   -0.4941 C   0  0  0  0  0  0  0  0  0  0  0  0
    8.1187    3.0972   -1.2920 F   0  0  0  0  0  0  0  0  0  0  0  0
    9.1520    2.5992    0.5560 F   0  0  0  0  0  0  0  0  0  0  0  0
    9.4008    1.3444   -1.2030 F   0  0  0  0  0  0  0  0  0  0  0  0
    6.0683    1.8331    0.2379 C   0  0  0  0  0  0  0  0  0  0  0  0
    4.9465    1.0873    0.6633 C   0  0  0  0  0  0  0  0  0  0  0  0
    3.6540    1.8334    0.9430 C   0  0  0  0  0  0  0  0  0  0  0  0
    3.0510    1.4558    2.1047 F   0  0  0  0  0  0  0  0  0  0  0  0
    2.7342    1.6889   -0.0464 F   0  0  0  0  0  0  0  0  0  0  0  0
    3.8413    3.1810    1.0684 F   0  0  0  0  0  0  0  0  0  0  0  0
    3.3616   -2.1784   -1.0833 C   0  0  0  0  0  0  0  0  0  0  0  0
    2.4789   -2.4735   -2.1262 C   0  0  0  0  0  0  0  0  0  0  0  0
    1.1242   -2.0515   -2.0555 C   0  0  0  0  0  0  0  0  0  0  0  0
    0.2823   -2.4697   -3.1171 C   0  0  0  0  0  0  0  0  0  0  0  0
    0.7560   -3.1998   -4.2104 C   0  0  0  0  0  0  0  0  0  0  0  0
    2.0922   -3.5594   -4.2731 C   0  0  0  0  0  0  0  0  0  0  0  0
    2.9457   -3.2040   -3.2327 C   0  0  0  0  0  0  0  0  0  0  0  0
    0.6599   -1.2873   -0.9233 C   0  0  0  0  0  0  0  0  0  0  0  0
   -0.6641   -0.7017   -0.8220 C   0  0  0  0  0  0  0  0  0  0  0  0
   -1.4864   -0.9561    0.3082 C   0  0  0  0  0  0  0  0  0  0  0  0
   -1.0145   -1.7468    1.3342 O   0  0  0  0  0  0  0  0  0  0  0  0
   -2.8195   -0.5217    0.4258 C   0  0  0  0  0  0  0  0  0  0  0  0
   -3.6375   -0.9166    1.6423 C   0  0  0  0  0  0  0  0  0  0  0  0
   -4.9004   -0.1141    1.9140 C   0  0  0  0  0  0  0  0  0  0  0  0
   -4.8832    1.1267    2.5925 C   0  0  0  0  0  0  0  0  0  0  0  0
   -3.6021    1.7391    3.1295 C   0  0  0  0  0  0  0  0  0  0  0  0
   -3.0315    0.9798    4.1050 F   0  0  0  0  0  0  0  0  0  0  0  0
   -3.7953    2.9660    3.6967 F   0  0  0  0  0  0  0  0  0  0  0  0
   -2.6553    1.9292    2.1745 F   0  0  0  0  0  0  0  0  0  0  0  0
   -6.1033    1.8071    2.7943 C   0  0  0  0  0  0  0  0  0  0  0  0
   -7.3249    1.2831    2.3407 C   0  0  0  0  0  0  0  0  0  0  0  0
   -8.6132    2.0417    2.5522 C   0  0  0  0  0  0  0  0  0  0  0  0
   -9.7082    1.2332    2.6051 F   0  0  0  0  0  0  0  0  0  0  0  0
   -8.6244    2.7578    3.7108 F   0  0  0  0  0  0  0  0  0  0  0  0
   -8.8561    2.9366    1.5558 F   0  0  0  0  0  0  0  0  0  0  0  0
   -7.3208    0.0619    1.6594 C   0  0  0  0  0  0  0  0  0  0  0  0
   -6.1264   -0.6282    1.4522 C   0  0  0  0  0  0  0  0  0  0  0  0
   -3.3564    0.2164   -0.6303 C   0  0  0  0  0  0  0  0  0  0  0  0
   -2.5808    0.5806   -1.7358 C   0  0  0  0  0  0  0  0  0  0  0  0
   -1.2297    0.1548   -1.8336 C   0  0  0  0  0  0  0  0  0  0  0  0
   -0.4924    0.6616   -2.9351 C   0  0  0  0  0  0  0  0  0  0  0  0
   -1.0660    1.4746   -3.9158 C   0  0  0  0  0  0  0  0  0  0  0  0
   -2.4016    1.8281   -3.8222 C   0  0  0  0  0  0  0  0  0  0  0  0
   -3.1514    1.3890   -2.7349 C   0  0  0  0  0  0  0  0  0  0  0  0
    0.0813    0.1845    3.8892 H   0  0  0  0  0  0  0  0  0  0  0  0
    4.3013   -2.1896    1.5256 H   0  0  0  0  0  0  0  0  0  0  0  0
    3.4239   -0.8099    2.0702 H   0  0  0  0  0  0  0  0  0  0  0  0
    6.4412   -1.9951    0.6224 H   0  0  0  0  0  0  0  0  0  0  0  0
    8.3629   -0.6586   -0.0916 H   0  0  0  0  0  0  0  0  0  0  0  0
    5.9796    2.9160    0.1231 H   0  0  0  0  0  0  0  0  0  0  0  0
    4.3971   -2.5078   -1.1511 H   0  0  0  0  0  0  0  0  0  0  0  0
   -0.7811   -2.2373   -3.1030 H   0  0  0  0  0  0  0  0  0  0  0  0
    0.0740   -3.4873   -5.0060 H   0  0  0  0  0  0  0  0  0  0  0  0
    2.4686   -4.1275   -5.1195 H   0  0  0  0  0  0  0  0  0  0  0  0
    3.9865   -3.5170   -3.2891 H   0  0  0  0  0  0  0  0  0  0  0  0
   -3.0176   -0.8719    2.5446 H   0  0  0  0  0  0  0  0  0  0  0  0
   -3.9078   -1.9755    1.5291 H   0  0  0  0  0  0  0  0  0  0  0  0
   -6.1037    2.7648    3.3195 H   0  0  0  0  0  0  0  0  0  0  0  0
   -8.2527   -0.3629    1.2873 H   0  0  0  0  0  0  0  0  0  0  0  0
   -6.1543   -1.5780    0.9187 H   0  0  0  0  0  0  0  0  0  0  0  0
   -4.3915    0.5493   -0.5883 H   0  0  0  0  0  0  0  0  0  0  0  0
    0.5679    0.4373   -3.0407 H   0  0  0  0  0  0  0  0  0  0  0  0
   -0.4628    1.8303   -4.7469 H   0  0  0  0  0  0  0  0  0  0  0  0
   -2.8548    2.4590   -4.5822 H   0  0  0  0  0  0  0  0  0  0  0  0
   -4.1912    1.7021   -2.6652 H   0  0  0  0  0  0  0  0  0  0  0  0
  2  3  1  0  0  0  0
  2  1  2  0  0  0  0
  3 56  1  0  0  0  0
  4  2  1  0  0  0  0
  5  4  1  0  0  0  0
  6  5  1  0  0  0  0
  6  7  1  0  0  0  0
  7 57  1  0  0  0  0
  7 58  1  0  0  0  0
  8  7  1  0  0  0  0
  9 59  1  0  0  0  0
  9  8  2  0  0  0  0
 10  9  1  0  0  0  0
 11 10  2  0  0  0  0
 11 16  1  0  0  0  0
 12 11  1  0  0  0  0
 12 14  1  0  0  0  0
 13 12  1  0  0  0  0
 15 12  1  0  0  0  0
 16 17  2  0  0  0  0
 17  8  1  0  0  0  0
 17 18  1  0  0  0  0
 18 21  1  0  0  0  0
 18 19  1  0  0  0  0
 20 18  1  0  0  0  0
 22  6  2  0  0  0  0
 23 24  1  0  0  0  0
 23 22  1  0  0  0  0
 24 29  1  0  0  0  0
 25 63  1  0  0  0  0
 25 24  2  0  0  0  0
 26 25  1  0  0  0  0
 27 26  2  0  0  0  0
 27 28  1  0  0  0  0
 28 23  2  0  0  0  0
 29 30  1  0  0  0  0
 29  5  2  0  0  0  0
 30 31  2  0  0  0  0
 31 33  1  0  0  0  0
 31 32  1  0  0  0  0
 32  2  1  0  0  0  0
 33 34  1  0  0  0  0
 34 35  1  0  0  0  0
 34 67  1  0  0  0  0
 35 36  2  0  0  0  0
 36 41  1  0  0  0  0
 36 37  1  0  0  0  0
 37 39  1  0  0  0  0
 37 38  1  0  0  0  0
 40 37  1  0  0  0  0
 41 69  1  0  0  0  0
 42 43  1  0  0  0  0
 42 41  2  0  0  0  0
 43 44  1  0  0  0  0
 43 45  1  0  0  0  0
 46 43  1  0  0  0  0
 47 42  1  0  0  0  0
 48 47  2  0  0  0  0
 48 35  1  0  0  0  0
 49 72  1  0  0  0  0
 49 33  2  0  0  0  0
 50 49  1  0  0  0  0
 51 50  1  0  0  0  0
 51 30  1  0  0  0  0
 52 51  2  0  0  0  0
 53 54  2  0  0  0  0
 53 52  1  0  0  0  0
 54 55  1  0  0  0  0
 55 76  1  0  0  0  0
 55 50  2  0  0  0  0
 60 10  1  0  0  0  0
 61 16  1  0  0  0  0
 62 22  1  0  0  0  0
 64 26  1  0  0  0  0
 65 27  1  0  0  0  0
 66 28  1  0  0  0  0
 68 34  1  0  0  0  0
 70 47  1  0  0  0  0
 71 48  1  0  0  0  0
 73 52  1  0  0  0  0
 74 53  1  0  0  0  0
 75 54  1  0  0  0  0
M  END
$$$$
