O=P1(O)OC2=C(C3=CC=C(OC)C=C3)C=C4C(C=CC=C4)=C2C5=C(O1)C(C6=CC=C(OC)C=C6)=CC7=C5C=CC=C7
 OpenBabel09032010383D

 66 72  0  0  0  0  0  0  0  0999 V2000
    0.3428    2.7730    0.2745 O   0  0  0  0  0  0  0  0  0  0  0  0
   -0.0900    1.5023   -0.3883 P   0  0  0  0  0  0  0  0  0  0  0  0
   -0.8602    1.7905   -1.7709 O   0  0  0  0  0  0  0  0  0  0  0  0
    1.0762    0.4749   -0.8111 O   0  0  0  0  0  0  0  0  0  0  0  0
    1.5900   -0.3397    0.1748 C   0  0  0  0  0  0  0  0  0  0  0  0
    2.9186   -0.1047    0.5674 C   0  0  0  0  0  0  0  0  0  0  0  0
    3.7402    0.9570   -0.0268 C   0  0  0  0  0  0  0  0  0  0  0  0
    3.6383    2.2820    0.4183 C   0  0  0  0  0  0  0  0  0  0  0  0
    4.4253    3.2951   -0.1435 C   0  0  0  0  0  0  0  0  0  0  0  0
    5.3332    2.9966   -1.1580 C   0  0  0  0  0  0  0  0  0  0  0  0
    6.1582    3.8867   -1.7886 O   0  0  0  0  0  0  0  0  0  0  0  0
    6.0490    5.2494   -1.3966 C   0  0  0  0  0  0  0  0  0  0  0  0
    5.4452    1.6783   -1.6032 C   0  0  0  0  0  0  0  0  0  0  0  0
    4.6573    0.6670   -1.0454 C   0  0  0  0  0  0  0  0  0  0  0  0
    3.4660   -0.9274    1.5527 C   0  0  0  0  0  0  0  0  0  0  0  0
    2.7136   -1.9358    2.1610 C   0  0  0  0  0  0  0  0  0  0  0  0
    1.3738   -2.1728    1.7518 C   0  0  0  0  0  0  0  0  0  0  0  0
    0.6587   -3.1528    2.4870 C   0  0  0  0  0  0  0  0  0  0  0  0
    1.2436   -3.8971    3.5150 C   0  0  0  0  0  0  0  0  0  0  0  0
    2.5669   -3.6755    3.8596 C   0  0  0  0  0  0  0  0  0  0  0  0
    3.2943   -2.6960    3.1902 C   0  0  0  0  0  0  0  0  0  0  0  0
    0.7947   -1.4005    0.6799 C   0  0  0  0  0  0  0  0  0  0  0  0
   -0.5102   -1.6672    0.1060 C   0  0  0  0  0  0  0  0  0  0  0  0
   -1.4736   -0.6319    0.0162 C   0  0  0  0  0  0  0  0  0  0  0  0
   -1.1495    0.6325    0.4566 O   0  0  0  0  0  0  0  0  0  0  0  0
   -2.7901   -0.8169   -0.4441 C   0  0  0  0  0  0  0  0  0  0  0  0
   -3.7599    0.2882   -0.5139 C   0  0  0  0  0  0  0  0  0  0  0  0
   -4.2184    0.9282    0.6471 C   0  0  0  0  0  0  0  0  0  0  0  0
   -5.1267    1.9923    0.5774 C   0  0  0  0  0  0  0  0  0  0  0  0
   -5.5941    2.4343   -0.6590 C   0  0  0  0  0  0  0  0  0  0  0  0
   -6.4731    3.4602   -0.8688 O   0  0  0  0  0  0  0  0  0  0  0  0
   -6.9634    4.1332    0.2842 C   0  0  0  0  0  0  0  0  0  0  0  0
   -5.1471    1.8020   -1.8201 C   0  0  0  0  0  0  0  0  0  0  0  0
   -4.2408    0.7402   -1.7508 C   0  0  0  0  0  0  0  0  0  0  0  0
   -3.1599   -2.0963   -0.8604 C   0  0  0  0  0  0  0  0  0  0  0  0
   -2.2486   -3.1562   -0.8589 C   0  0  0  0  0  0  0  0  0  0  0  0
   -0.9171   -2.9548   -0.4041 C   0  0  0  0  0  0  0  0  0  0  0  0
   -0.0379   -4.0600   -0.5403 C   0  0  0  0  0  0  0  0  0  0  0  0
   -0.4581   -5.3020   -1.0241 C   0  0  0  0  0  0  0  0  0  0  0  0
   -1.7759   -5.4812   -1.4110 C   0  0  0  0  0  0  0  0  0  0  0  0
   -2.6627   -4.4117   -1.3356 C   0  0  0  0  0  0  0  0  0  0  0  0
   -1.4553    2.5560   -1.6730 H   0  0  0  0  0  0  0  0  0  0  0  0
    2.9328    2.5408    1.2064 H   0  0  0  0  0  0  0  0  0  0  0  0
    4.2964    4.3028    0.2360 H   0  0  0  0  0  0  0  0  0  0  0  0
    6.3248    5.3805   -0.3450 H   0  0  0  0  0  0  0  0  0  0  0  0
    5.0448    5.6387   -1.5944 H   0  0  0  0  0  0  0  0  0  0  0  0
    6.7549    5.8281   -2.0001 H   0  0  0  0  0  0  0  0  0  0  0  0
    6.1488    1.4352   -2.3955 H   0  0  0  0  0  0  0  0  0  0  0  0
    4.7599   -0.3503   -1.4167 H   0  0  0  0  0  0  0  0  0  0  0  0
    4.4947   -0.7531    1.8676 H   0  0  0  0  0  0  0  0  0  0  0  0
   -0.3914   -3.3458    2.2740 H   0  0  0  0  0  0  0  0  0  0  0  0
    0.6570   -4.6428    4.0449 H   0  0  0  0  0  0  0  0  0  0  0  0
    3.0289   -4.2492    4.6585 H   0  0  0  0  0  0  0  0  0  0  0  0
    4.3253   -2.5193    3.4919 H   0  0  0  0  0  0  0  0  0  0  0  0
   -3.8637    0.6002    1.6232 H   0  0  0  0  0  0  0  0  0  0  0  0
   -5.4441    2.4503    1.5083 H   0  0  0  0  0  0  0  0  0  0  0  0
   -6.1499    4.6183    0.8337 H   0  0  0  0  0  0  0  0  0  0  0  0
   -7.6506    4.9155   -0.0523 H   0  0  0  0  0  0  0  0  0  0  0  0
   -7.5259    3.4510    0.9302 H   0  0  0  0  0  0  0  0  0  0  0  0
   -5.5057    2.1385   -2.7898 H   0  0  0  0  0  0  0  0  0  0  0  0
   -3.9010    0.2748   -2.6743 H   0  0  0  0  0  0  0  0  0  0  0  0
   -4.1780   -2.2601   -1.2128 H   0  0  0  0  0  0  0  0  0  0  0  0
    1.0147   -3.9645   -0.2791 H   0  0  0  0  0  0  0  0  0  0  0  0
    0.2519   -6.1212   -1.1013 H   0  0  0  0  0  0  0  0  0  0  0  0
   -2.1104   -6.4434   -1.7891 H   0  0  0  0  0  0  0  0  0  0  0  0
   -3.6873   -4.5645   -1.6703 H   0  0  0  0  0  0  0  0  0  0  0  0
  2  1  2  0  0  0  0
  2 25  1  0  0  0  0
  3 42  1  0  0  0  0
  3  2  1  0  0  0  0
  4  2  1  0  0  0  0
  4  5  1  0  0  0  0
  5  6  2  0  0  0  0
  5 22  1  0  0  0  0
  6 15  1  0  0  0  0
  7  8  1  0  0  0  0
  7  6  1  0  0  0  0
  8 43  1  0  0  0  0
  9 44  1  0  0  0  0
  9  8  2  0  0  0  0
 10  9  1  0  0  0  0
 11 12  1  0  0  0  0
 11 10  1  0  0  0  0
 12 45  1  0  0  0  0
 13 10  2  0  0  0  0
 13 14  1  0  0  0  0
 14  7  2  0  0  0  0
 15 50  1  0  0  0  0
 15 16  2  0  0  0  0
 16 21  1  0  0  0  0
 17 16  1  0  0  0  0
 17 18  1  0  0  0  0
 18 19  2  0  0  0  0
 19 20  1  0  0  0  0
 19 52  1  0  0  0  0
 20 53  1  0  0  0  0
 21 54  1  0  0  0  0
 21 20  2  0  0  0  0
 22 17  2  0  0  0  0
 23 22  1  0  0  0  0
 24 23  1  0  0  0  0
 24 25  1  0  0  0  0
 26 24  2  0  0  0  0
 27 26  1  0  0  0  0
 27 28  2  0  0  0  0
 28 55  1  0  0  0  0
 29 28  1  0  0  0  0
 29 56  1  0  0  0  0
 30 29  2  0  0  0  0
 31 30  1  0  0  0  0
 31 32  1  0  0  0  0
 32 57  1  0  0  0  0
 32 59  1  0  0  0  0
 33 34  2  0  0  0  0
 33 30  1  0  0  0  0
 34 27  1  0  0  0  0
 35 36  2  0  0  0  0
 35 26  1  0  0  0  0
 36 37  1  0  0  0  0
 37 23  2  0  0  0  0
 38 37  1  0  0  0  0
 38 63  1  0  0  0  0
 39 38  2  0  0  0  0
 40 41  2  0  0  0  0
 40 39  1  0  0  0  0
 41 36  1  0  0  0  0
 46 12  1  0  0  0  0
 47 12  1  0  0  0  0
 48 13  1  0  0  0  0
 49 14  1  0  0  0  0
 51 18  1  0  0  0  0
 58 32  1  0  0  0  0
 60 33  1  0  0  0  0
 61 34  1  0  0  0  0
 62 35  1  0  0  0  0
 64 39  1  0  0  0  0
 65 40  1  0  0  0  0
 66 41  1  0  0  0  0
M  END
$$$$
