O=P1(O)OC2=C(C3=C(F)C=C(OC)C=C3F)C=C4C(C=CC=C4)=[C@]2[C@]5=C(O1)C(C6=C(F)C=C(OC)C=C6F)=CC7=C5C=CC=C7
 OpenBabel09032010373D

 66 72  0  0  0  0  0  0  0  0999 V2000
    0.8418    2.5558    0.7217 O   0  0  0  0  0  0  0  0  0  0  0  0
    0.1281    1.5446   -0.1200 P   0  0  0  0  0  0  0  0  0  0  0  0
   -0.6395    2.2610   -1.3380 O   0  0  0  0  0  0  0  0  0  0  0  0
    1.0698    0.4743   -0.8652 O   0  0  0  0  0  0  0  0  0  0  0  0
    1.5112   -0.5945   -0.1161 C   0  0  0  0  0  0  0  0  0  0  0  0
    2.8762   -0.6169    0.2205 C   0  0  0  0  0  0  0  0  0  0  0  0
    3.7960    0.4617   -0.1717 C   0  0  0  0  0  0  0  0  0  0  0  0
    4.1041    0.7197   -1.5112 C   0  0  0  0  0  0  0  0  0  0  0  0
    3.5833   -0.0457   -2.4826 F   0  0  0  0  0  0  0  0  0  0  0  0
    4.9571    1.7593   -1.8812 C   0  0  0  0  0  0  0  0  0  0  0  0
    5.5314    2.5797   -0.9107 C   0  0  0  0  0  0  0  0  0  0  0  0
    6.3425    3.5654   -1.3986 O   0  0  0  0  0  0  0  0  0  0  0  0
    6.9182    4.4555   -0.4489 C   0  0  0  0  0  0  0  0  0  0  0  0
    5.2491    2.3391    0.4309 C   0  0  0  0  0  0  0  0  0  0  0  0
    4.3950    1.2911    0.7841 C   0  0  0  0  0  0  0  0  0  0  0  0
    4.1540    1.0912    2.0894 F   0  0  0  0  0  0  0  0  0  0  0  0
    3.3406   -1.6995    0.9697 C   0  0  0  0  0  0  0  0  0  0  0  0
    2.4794   -2.7129    1.4029 C   0  0  0  0  0  0  0  0  0  0  0  0
    1.1003   -2.6741    1.0623 C   0  0  0  0  0  0  0  0  0  0  0  0
    0.2866   -3.6877    1.6304 C   0  0  0  0  0  0  0  0  0  0  0  0
    0.8065   -4.7129    2.4251 C   0  0  0  0  0  0  0  0  0  0  0  0
    2.1637   -4.7516    2.6994 C   0  0  0  0  0  0  0  0  0  0  0  0
    2.9925   -3.7528    2.1971 C   0  0  0  0  0  0  0  0  0  0  0  0
    0.5886   -1.6131    0.2297 C   0  0  0  0  0  0  0  0  0  0  0  0
   -0.7766   -1.5489   -0.2550 C   0  0  0  0  0  0  0  0  0  0  0  0
   -1.5679   -0.3929   -0.0226 C   0  0  0  0  0  0  0  0  0  0  0  0
   -1.0180    0.6951    0.6236 O   0  0  0  0  0  0  0  0  0  0  0  0
   -2.9309   -0.2944   -0.3593 C   0  0  0  0  0  0  0  0  0  0  0  0
   -3.7237    0.9090   -0.0662 C   0  0  0  0  0  0  0  0  0  0  0  0
   -4.2174    1.7252   -1.0888 C   0  0  0  0  0  0  0  0  0  0  0  0
   -3.9889    1.4094   -2.3732 F   0  0  0  0  0  0  0  0  0  0  0  0
   -4.9550    2.8773   -0.8171 C   0  0  0  0  0  0  0  0  0  0  0  0
   -5.2230    3.2486    0.5001 C   0  0  0  0  0  0  0  0  0  0  0  0
   -5.9518    4.3967    0.6360 O   0  0  0  0  0  0  0  0  0  0  0  0
   -6.2233    4.8357    1.9622 C   0  0  0  0  0  0  0  0  0  0  0  0
   -4.7503    2.4493    1.5371 C   0  0  0  0  0  0  0  0  0  0  0  0
   -4.0141    1.2972    1.2470 C   0  0  0  0  0  0  0  0  0  0  0  0
   -3.5922    0.5471    2.2773 F   0  0  0  0  0  0  0  0  0  0  0  0
   -3.5246   -1.3836   -0.9998 C   0  0  0  0  0  0  0  0  0  0  0  0
   -2.7915   -2.5282   -1.3260 C   0  0  0  0  0  0  0  0  0  0  0  0
   -1.4159   -2.6187   -0.9821 C   0  0  0  0  0  0  0  0  0  0  0  0
   -0.7324   -3.7738   -1.4427 C   0  0  0  0  0  0  0  0  0  0  0  0
   -1.3752   -4.8044   -2.1341 C   0  0  0  0  0  0  0  0  0  0  0  0
   -2.7290   -4.7093   -2.4105 C   0  0  0  0  0  0  0  0  0  0  0  0
   -3.4298   -3.5739   -2.0151 C   0  0  0  0  0  0  0  0  0  0  0  0
   -0.1554    3.0582   -1.6181 H   0  0  0  0  0  0  0  0  0  0  0  0
    5.1668    1.9233   -2.9343 H   0  0  0  0  0  0  0  0  0  0  0  0
    7.5876    3.9225    0.2343 H   0  0  0  0  0  0  0  0  0  0  0  0
    7.5169    5.1886   -0.9981 H   0  0  0  0  0  0  0  0  0  0  0  0
    6.1440    5.0010    0.1007 H   0  0  0  0  0  0  0  0  0  0  0  0
    5.6637    2.9389    1.2326 H   0  0  0  0  0  0  0  0  0  0  0  0
    4.3944   -1.7372    1.2445 H   0  0  0  0  0  0  0  0  0  0  0  0
   -0.7904   -3.6857    1.4705 H   0  0  0  0  0  0  0  0  0  0  0  0
    0.1433   -5.4719    2.8315 H   0  0  0  0  0  0  0  0  0  0  0  0
    2.5753   -5.5442    3.3183 H   0  0  0  0  0  0  0  0  0  0  0  0
    4.0515   -3.7850    2.4469 H   0  0  0  0  0  0  0  0  0  0  0  0
   -5.3148    3.4829   -1.6438 H   0  0  0  0  0  0  0  0  0  0  0  0
   -6.8360    4.1051    2.5006 H   0  0  0  0  0  0  0  0  0  0  0  0
   -5.2965    5.0509    2.5042 H   0  0  0  0  0  0  0  0  0  0  0  0
   -6.7950    5.7663    1.8958 H   0  0  0  0  0  0  0  0  0  0  0  0
   -4.9281    2.6799    2.5809 H   0  0  0  0  0  0  0  0  0  0  0  0
   -4.5781   -1.3245   -1.2719 H   0  0  0  0  0  0  0  0  0  0  0  0
    0.3382   -3.8843   -1.2785 H   0  0  0  0  0  0  0  0  0  0  0  0
   -0.8091   -5.6733   -2.4589 H   0  0  0  0  0  0  0  0  0  0  0  0
   -3.2361   -5.5055   -2.9485 H   0  0  0  0  0  0  0  0  0  0  0  0
   -4.4869   -3.5049   -2.2655 H   0  0  0  0  0  0  0  0  0  0  0  0
  2 27  1  0  0  0  0
  2  1  2  0  0  0  0
  3  2  1  0  0  0  0
  4  2  1  0  0  0  0
  4  5  1  0  0  0  0
  5  6  2  0  0  0  0
  5 24  1  0  0  0  0
  6 17  1  0  0  0  0
  7  6  1  0  0  0  0
  7 15  2  0  0  0  0
  8  7  1  0  0  0  0
  9  8  1  0  0  0  0
 10  8  2  0  0  0  0
 10 11  1  0  0  0  0
 11 14  2  0  0  0  0
 12 11  1  0  0  0  0
 12 13  1  0  0  0  0
 13 50  1  0  0  0  0
 13 48  1  0  0  0  0
 14 15  1  0  0  0  0
 14 51  1  0  0  0  0
 15 16  1  0  0  0  0
 17 52  1  0  0  0  0
 17 18  2  0  0  0  0
 18 23  1  0  0  0  0
 19 18  1  0  0  0  0
 19 20  1  0  0  0  0
 20 21  2  0  0  0  0
 21 22  1  0  0  0  0
 21 54  1  0  0  0  0
 22 55  1  0  0  0  0
 23 56  1  0  0  0  0
 23 22  2  0  0  0  0
 24 19  2  0  0  0  0
 25 26  2  0  0  0  0
 25 24  1  0  0  0  0
 26 27  1  0  0  0  0
 28 29  1  0  0  0  0
 28 26  1  0  0  0  0
 29 37  2  0  0  0  0
 30 32  2  0  0  0  0
 30 29  1  0  0  0  0
 31 30  1  0  0  0  0
 32 33  1  0  0  0  0
 33 34  1  0  0  0  0
 33 36  2  0  0  0  0
 34 35  1  0  0  0  0
 35 58  1  0  0  0  0
 35 59  1  0  0  0  0
 36 61  1  0  0  0  0
 37 36  1  0  0  0  0
 37 38  1  0  0  0  0
 39 28  2  0  0  0  0
 40 39  1  0  0  0  0
 40 41  1  0  0  0  0
 41 25  1  0  0  0  0
 42 63  1  0  0  0  0
 42 41  2  0  0  0  0
 43 42  1  0  0  0  0
 44 43  2  0  0  0  0
 44 45  1  0  0  0  0
 45 40  2  0  0  0  0
 46  3  1  0  0  0  0
 47 10  1  0  0  0  0
 49 13  1  0  0  0  0
 53 20  1  0  0  0  0
 57 32  1  0  0  0  0
 60 35  1  0  0  0  0
 62 39  1  0  0  0  0
 64 43  1  0  0  0  0
 65 44  1  0  0  0  0
 66 45  1  0  0  0  0
M  END
$$$$
