O=P1(O)OC2=C(C3=CC=C(C(C)(C)C)C=C3)C=C4C(C=CC=C4)=C2C5=C(O1)C(C6=CC=C(C(C)(C)C)C=C6)=CC7=C5C=CC=C7
 OpenBabel09032010373D

 82 88  0  0  0  0  0  0  0  0999 V2000
    0.5432    1.6122    1.2697 O   0  0  0  0  0  0  0  0  0  0  0  0
   -0.0257    0.6677    0.2575 P   0  0  0  0  0  0  0  0  0  0  0  0
   -0.8927    1.4419   -0.8552 O   0  0  0  0  0  0  0  0  0  0  0  0
    1.0286   -0.1873   -0.6105 O   0  0  0  0  0  0  0  0  0  0  0  0
    1.5707   -1.3093   -0.0212 C   0  0  0  0  0  0  0  0  0  0  0  0
    2.9411   -1.2692    0.2863 C   0  0  0  0  0  0  0  0  0  0  0  0
    3.7781   -0.0982   -0.0001 C   0  0  0  0  0  0  0  0  0  0  0  0
    4.5655   -0.0472   -1.1557 C   0  0  0  0  0  0  0  0  0  0  0  0
    5.3713    1.0650   -1.4331 C   0  0  0  0  0  0  0  0  0  0  0  0
    5.4189    2.1661   -0.5642 C   0  0  0  0  0  0  0  0  0  0  0  0
    6.2854    3.4070   -0.8388 C   0  0  0  0  0  0  0  0  0  0  0  0
    7.2917    3.6041    0.3157 C   0  0  0  0  0  0  0  0  0  0  0  0
    7.1033    3.3203   -2.1472 C   0  0  0  0  0  0  0  0  0  0  0  0
    5.3839    4.6558   -0.9455 C   0  0  0  0  0  0  0  0  0  0  0  0
    4.6239    2.1021    0.5956 C   0  0  0  0  0  0  0  0  0  0  0  0
    3.8208    0.9906    0.8744 C   0  0  0  0  0  0  0  0  0  0  0  0
    3.5157   -2.3990    0.8706 C   0  0  0  0  0  0  0  0  0  0  0  0
    2.7532   -3.5302    1.1740 C   0  0  0  0  0  0  0  0  0  0  0  0
    1.3703   -3.5663    0.8503 C   0  0  0  0  0  0  0  0  0  0  0  0
    0.6573   -4.7159    1.2766 C   0  0  0  0  0  0  0  0  0  0  0  0
    1.2776   -5.7902    1.9205 C   0  0  0  0  0  0  0  0  0  0  0  0
    2.6377   -5.7462    2.1800 C   0  0  0  0  0  0  0  0  0  0  0  0
    3.3685   -4.6193    1.8147 C   0  0  0  0  0  0  0  0  0  0  0  0
    0.7536   -2.4526    0.1718 C   0  0  0  0  0  0  0  0  0  0  0  0
   -0.6091   -2.4620   -0.3245 C   0  0  0  0  0  0  0  0  0  0  0  0
   -1.5074   -1.4279    0.0394 C   0  0  0  0  0  0  0  0  0  0  0  0
   -1.0648   -0.4086    0.8533 O   0  0  0  0  0  0  0  0  0  0  0  0
   -2.8654   -1.3952   -0.3281 C   0  0  0  0  0  0  0  0  0  0  0  0
   -3.7643   -0.2994    0.0729 C   0  0  0  0  0  0  0  0  0  0  0  0
   -4.3488    0.5368   -0.8870 C   0  0  0  0  0  0  0  0  0  0  0  0
   -5.1930    1.5920   -0.5152 C   0  0  0  0  0  0  0  0  0  0  0  0
   -5.4869    1.8503    0.8320 C   0  0  0  0  0  0  0  0  0  0  0  0
   -6.4091    2.9983    1.2782 C   0  0  0  0  0  0  0  0  0  0  0  0
   -5.6283    3.9643    2.1954 C   0  0  0  0  0  0  0  0  0  0  0  0
   -7.6148    2.4245    2.0533 C   0  0  0  0  0  0  0  0  0  0  0  0
   -6.9743    3.8357    0.1087 C   0  0  0  0  0  0  0  0  0  0  0  0
   -4.8983    1.0037    1.7895 C   0  0  0  0  0  0  0  0  0  0  0  0
   -4.0547   -0.0499    1.4181 C   0  0  0  0  0  0  0  0  0  0  0  0
   -3.3489   -2.4402   -1.1169 C   0  0  0  0  0  0  0  0  0  0  0  0
   -2.5116   -3.4662   -1.5648 C   0  0  0  0  0  0  0  0  0  0  0  0
   -1.1379   -3.4790   -1.2010 C   0  0  0  0  0  0  0  0  0  0  0  0
   -0.3456   -4.4966   -1.7920 C   0  0  0  0  0  0  0  0  0  0  0  0
   -0.8823   -5.4810   -2.6263 C   0  0  0  0  0  0  0  0  0  0  0  0
   -2.2359   -5.4724   -2.9193 C   0  0  0  0  0  0  0  0  0  0  0  0
   -3.0429   -4.4658   -2.3975 C   0  0  0  0  0  0  0  0  0  0  0  0
   -1.4604    2.1116   -0.4321 H   0  0  0  0  0  0  0  0  0  0  0  0
    4.5517   -0.8770   -1.8596 H   0  0  0  0  0  0  0  0  0  0  0  0
    5.9517    1.0399   -2.3508 H   0  0  0  0  0  0  0  0  0  0  0  0
    6.7931    3.7865    1.2739 H   0  0  0  0  0  0  0  0  0  0  0  0
    7.9285    2.7200    0.4391 H   0  0  0  0  0  0  0  0  0  0  0  0
    7.9464    4.4630    0.1270 H   0  0  0  0  0  0  0  0  0  0  0  0
    6.4530    3.2178   -3.0237 H   0  0  0  0  0  0  0  0  0  0  0  0
    7.7054    4.2246   -2.2975 H   0  0  0  0  0  0  0  0  0  0  0  0
    7.7961    2.4707   -2.1344 H   0  0  0  0  0  0  0  0  0  0  0  0
    4.6363    4.5360   -1.7387 H   0  0  0  0  0  0  0  0  0  0  0  0
    5.9739    5.5508   -1.1757 H   0  0  0  0  0  0  0  0  0  0  0  0
    4.8448    4.8588   -0.0137 H   0  0  0  0  0  0  0  0  0  0  0  0
    4.6105    2.9262    1.3058 H   0  0  0  0  0  0  0  0  0  0  0  0
    3.2175    0.9904    1.7806 H   0  0  0  0  0  0  0  0  0  0  0  0
    4.5774   -2.3779    1.1160 H   0  0  0  0  0  0  0  0  0  0  0  0
   -0.4178   -4.7872    1.1208 H   0  0  0  0  0  0  0  0  0  0  0  0
    0.6901   -6.6537    2.2209 H   0  0  0  0  0  0  0  0  0  0  0  0
    3.1279   -6.5765    2.6808 H   0  0  0  0  0  0  0  0  0  0  0  0
    4.4312   -4.5921    2.0492 H   0  0  0  0  0  0  0  0  0  0  0  0
   -4.1411    0.3800   -1.9445 H   0  0  0  0  0  0  0  0  0  0  0  0
   -5.6096    2.1997   -1.3140 H   0  0  0  0  0  0  0  0  0  0  0  0
   -5.2823    3.4760    3.1130 H   0  0  0  0  0  0  0  0  0  0  0  0
   -6.2533    4.8120    2.5000 H   0  0  0  0  0  0  0  0  0  0  0  0
   -4.7459    4.3670    1.6841 H   0  0  0  0  0  0  0  0  0  0  0  0
   -7.3101    1.9041    2.9679 H   0  0  0  0  0  0  0  0  0  0  0  0
   -8.1746    1.7095    1.4388 H   0  0  0  0  0  0  0  0  0  0  0  0
   -8.3068    3.2202    2.3531 H   0  0  0  0  0  0  0  0  0  0  0  0
   -7.5759    3.2229   -0.5727 H   0  0  0  0  0  0  0  0  0  0  0  0
   -6.1742    4.3083   -0.4729 H   0  0  0  0  0  0  0  0  0  0  0  0
   -7.6232    4.6399    0.4761 H   0  0  0  0  0  0  0  0  0  0  0  0
   -5.0893    1.1508    2.8507 H   0  0  0  0  0  0  0  0  0  0  0  0
   -3.6214   -0.6773    2.1952 H   0  0  0  0  0  0  0  0  0  0  0  0
   -4.4005   -2.4387   -1.4030 H   0  0  0  0  0  0  0  0  0  0  0  0
    0.7285   -4.5308   -1.6188 H   0  0  0  0  0  0  0  0  0  0  0  0
   -0.2345   -6.2454   -3.0474 H   0  0  0  0  0  0  0  0  0  0  0  0
   -2.6617   -6.2332   -3.5675 H   0  0  0  0  0  0  0  0  0  0  0  0
   -4.0989   -4.4599   -2.6619 H   0  0  0  0  0  0  0  0  0  0  0  0
  2 27  1  0  0  0  0
  2  1  2  0  0  0  0
  3 46  1  0  0  0  0
  3  2  1  0  0  0  0
  4  5  1  0  0  0  0
  4  2  1  0  0  0  0
  5 24  2  0  0  0  0
  5  6  1  0  0  0  0
  6 17  2  0  0  0  0
  7  6  1  0  0  0  0
  7 16  2  0  0  0  0
  8  7  1  0  0  0  0
  9  8  2  0  0  0  0
  9 10  1  0  0  0  0
 10 15  2  0  0  0  0
 11 10  1  0  0  0  0
 11 12  1  0  0  0  0
 12 50  1  0  0  0  0
 12 49  1  0  0  0  0
 13 54  1  0  0  0  0
 13 11  1  0  0  0  0
 14 11  1  0  0  0  0
 14 57  1  0  0  0  0
 15 16  1  0  0  0  0
 15 58  1  0  0  0  0
 16 59  1  0  0  0  0
 17 60  1  0  0  0  0
 17 18  1  0  0  0  0
 18 23  1  0  0  0  0
 19 18  2  0  0  0  0
 19 20  1  0  0  0  0
 20 21  2  0  0  0  0
 21 22  1  0  0  0  0
 21 62  1  0  0  0  0
 22 63  1  0  0  0  0
 23 64  1  0  0  0  0
 23 22  2  0  0  0  0
 24 19  1  0  0  0  0
 25 26  2  0  0  0  0
 25 24  1  0  0  0  0
 26 27  1  0  0  0  0
 28 26  1  0  0  0  0
 28 29  1  0  0  0  0
 29 38  2  0  0  0  0
 30 31  2  0  0  0  0
 30 29  1  0  0  0  0
 31 32  1  0  0  0  0
 32 33  1  0  0  0  0
 32 37  2  0  0  0  0
 33 35  1  0  0  0  0
 33 34  1  0  0  0  0
 34 68  1  0  0  0  0
 34 67  1  0  0  0  0
 35 72  1  0  0  0  0
 35 70  1  0  0  0  0
 36 75  1  0  0  0  0
 36 33  1  0  0  0  0
 37 76  1  0  0  0  0
 38 37  1  0  0  0  0
 38 77  1  0  0  0  0
 39 28  2  0  0  0  0
 40 41  1  0  0  0  0
 40 39  1  0  0  0  0
 41 25  1  0  0  0  0
 42 79  1  0  0  0  0
 42 41  2  0  0  0  0
 43 42  1  0  0  0  0
 44 43  2  0  0  0  0
 44 45  1  0  0  0  0
 45 40  2  0  0  0  0
 47  8  1  0  0  0  0
 48  9  1  0  0  0  0
 51 12  1  0  0  0  0
 52 13  1  0  0  0  0
 53 13  1  0  0  0  0
 55 14  1  0  0  0  0
 56 14  1  0  0  0  0
 61 20  1  0  0  0  0
 65 30  1  0  0  0  0
 66 31  1  0  0  0  0
 69 34  1  0  0  0  0
 71 35  1  0  0  0  0
 73 36  1  0  0  0  0
 74 36  1  0  0  0  0
 78 39  1  0  0  0  0
 80 43  1  0  0  0  0
 81 44  1  0  0  0  0
 82 45  1  0  0  0  0
M  END
$$$$
