O=P1(O)OC2=C(C3=CC(C(F)(F)F)=CC(C(F)(F)F)=C3)C=C4C(CCCC4)=C2C5=C(O1)C(C6=CC(C(F)(F)F)=CC(C(F)(F)F)=C6)=CC7=C5CCCC7
 OpenBabel09032010383D

 78 84  0  0  0  0  0  0  0  0999 V2000
    0.5917   -3.2623   -0.1335 O   0  0  0  0  0  0  0  0  0  0  0  0
   -0.0222   -2.0534    0.5023 P   0  0  0  0  0  0  0  0  0  0  0  0
   -0.7830   -2.4811    1.8550 O   0  0  0  0  0  0  0  0  0  0  0  0
   -1.1586   -1.3214   -0.3749 O   0  0  0  0  0  0  0  0  0  0  0  0
   -1.5633   -0.0448   -0.0511 C   0  0  0  0  0  0  0  0  0  0  0  0
   -2.9304    0.1428    0.2307 C   0  0  0  0  0  0  0  0  0  0  0  0
   -3.9155   -0.9474    0.1716 C   0  0  0  0  0  0  0  0  0  0  0  0
   -4.8423   -1.0152   -0.8807 C   0  0  0  0  0  0  0  0  0  0  0  0
   -5.8168   -2.0257   -0.9350 C   0  0  0  0  0  0  0  0  0  0  0  0
   -6.8014   -2.0730   -2.0799 C   0  0  0  0  0  0  0  0  0  0  0  0
   -7.9778   -2.6734   -1.7456 F   0  0  0  0  0  0  0  0  0  0  0  0
   -7.1356   -0.8375   -2.5462 F   0  0  0  0  0  0  0  0  0  0  0  0
   -6.3190   -2.7616   -3.1494 F   0  0  0  0  0  0  0  0  0  0  0  0
   -5.8383   -3.0020    0.0739 C   0  0  0  0  0  0  0  0  0  0  0  0
   -4.9190   -2.9628    1.1337 C   0  0  0  0  0  0  0  0  0  0  0  0
   -4.9366   -4.0004    2.2304 C   0  0  0  0  0  0  0  0  0  0  0  0
   -3.6984   -4.5048    2.4946 F   0  0  0  0  0  0  0  0  0  0  0  0
   -5.3984   -3.5011    3.4092 F   0  0  0  0  0  0  0  0  0  0  0  0
   -5.7227   -5.0758    1.9455 F   0  0  0  0  0  0  0  0  0  0  0  0
   -3.9767   -1.9217    1.1774 C   0  0  0  0  0  0  0  0  0  0  0  0
   -3.3625    1.4299    0.5630 C   0  0  0  0  0  0  0  0  0  0  0  0
   -2.4631    2.4973    0.6643 C   0  0  0  0  0  0  0  0  0  0  0  0
   -1.0986    2.2996    0.3454 C   0  0  0  0  0  0  0  0  0  0  0  0
   -0.1099    3.4099    0.6901 C   0  0  0  0  0  0  0  0  0  0  0  0
   -0.7330    4.8026    0.7215 C   0  0  0  0  0  0  0  0  0  0  0  0
   -1.9613    4.8010    1.6153 C   0  0  0  0  0  0  0  0  0  0  0  0
   -3.0126    3.8490    1.0606 C   0  0  0  0  0  0  0  0  0  0  0  0
   -0.6298    1.0229   -0.0986 C   0  0  0  0  0  0  0  0  0  0  0  0
    0.7074    0.8154   -0.5832 C   0  0  0  0  0  0  0  0  0  0  0  0
    1.5626   -0.1182    0.0484 C   0  0  0  0  0  0  0  0  0  0  0  0
    1.0220   -0.9367    1.0132 O   0  0  0  0  0  0  0  0  0  0  0  0
    2.9334   -0.2523   -0.2448 C   0  0  0  0  0  0  0  0  0  0  0  0
    3.8393   -1.1477    0.5091 C   0  0  0  0  0  0  0  0  0  0  0  0
    4.7125   -2.0302   -0.1527 C   0  0  0  0  0  0  0  0  0  0  0  0
    5.6114   -2.8509    0.5527 C   0  0  0  0  0  0  0  0  0  0  0  0
    6.5830   -3.7452   -0.1826 C   0  0  0  0  0  0  0  0  0  0  0  0
    7.7954   -3.1488   -0.3551 F   0  0  0  0  0  0  0  0  0  0  0  0
    6.1602   -4.0984   -1.4273 F   0  0  0  0  0  0  0  0  0  0  0  0
    6.8327   -4.9127    0.4734 F   0  0  0  0  0  0  0  0  0  0  0  0
    5.6293   -2.7889    1.9543 C   0  0  0  0  0  0  0  0  0  0  0  0
    4.7718   -1.9226    2.6469 C   0  0  0  0  0  0  0  0  0  0  0  0
    4.7695   -1.8699    4.1560 C   0  0  0  0  0  0  0  0  0  0  0  0
    4.6353   -0.6051    4.6425 F   0  0  0  0  0  0  0  0  0  0  0  0
    5.9113   -2.3623    4.7120 F   0  0  0  0  0  0  0  0  0  0  0  0
    3.7488   -2.5909    4.6955 F   0  0  0  0  0  0  0  0  0  0  0  0
    3.8881   -1.1119    1.9137 C   0  0  0  0  0  0  0  0  0  0  0  0
    3.4367    0.5297   -1.2912 C   0  0  0  0  0  0  0  0  0  0  0  0
    2.6157    1.3893   -2.0367 C   0  0  0  0  0  0  0  0  0  0  0  0
    1.2482    1.5138   -1.7070 C   0  0  0  0  0  0  0  0  0  0  0  0
    0.3420    2.3618   -2.5925 C   0  0  0  0  0  0  0  0  0  0  0  0
    0.9270    2.6616   -3.9712 C   0  0  0  0  0  0  0  0  0  0  0  0
    2.3475    3.1805   -3.8252 C   0  0  0  0  0  0  0  0  0  0  0  0
    3.2342    2.0994   -3.2196 C   0  0  0  0  0  0  0  0  0  0  0  0
   -0.5747   -3.4133    2.0567 H   0  0  0  0  0  0  0  0  0  0  0  0
   -4.8069   -0.2636   -1.6707 H   0  0  0  0  0  0  0  0  0  0  0  0
   -6.5819   -3.8000    0.0334 H   0  0  0  0  0  0  0  0  0  0  0  0
   -3.2774   -1.8704    2.0130 H   0  0  0  0  0  0  0  0  0  0  0  0
   -4.4166    1.5983    0.7829 H   0  0  0  0  0  0  0  0  0  0  0  0
    0.2981    3.1792    1.6834 H   0  0  0  0  0  0  0  0  0  0  0  0
    0.7413    3.4447    0.0091 H   0  0  0  0  0  0  0  0  0  0  0  0
   -1.0083    5.1161   -0.2933 H   0  0  0  0  0  0  0  0  0  0  0  0
    0.0008    5.5249    1.0964 H   0  0  0  0  0  0  0  0  0  0  0  0
   -1.6784    4.4950    2.6305 H   0  0  0  0  0  0  0  0  0  0  0  0
   -2.3790    5.8113    1.6892 H   0  0  0  0  0  0  0  0  0  0  0  0
   -3.8018    3.7271    1.8126 H   0  0  0  0  0  0  0  0  0  0  0  0
   -3.4743    4.2963    0.1710 H   0  0  0  0  0  0  0  0  0  0  0  0
    4.6935   -2.0850   -1.2422 H   0  0  0  0  0  0  0  0  0  0  0  0
    6.3239   -3.4206    2.5111 H   0  0  0  0  0  0  0  0  0  0  0  0
    3.2323   -0.4276    2.4549 H   0  0  0  0  0  0  0  0  0  0  0  0
    4.4927    0.4614   -1.5515 H   0  0  0  0  0  0  0  0  0  0  0  0
   -0.6162    1.8502   -2.7417 H   0  0  0  0  0  0  0  0  0  0  0  0
    0.1401    3.3161   -2.0968 H   0  0  0  0  0  0  0  0  0  0  0  0
    0.3033    3.4041   -4.4814 H   0  0  0  0  0  0  0  0  0  0  0  0
    0.9214    1.7552   -4.5898 H   0  0  0  0  0  0  0  0  0  0  0  0
    2.3522    4.0721   -3.1854 H   0  0  0  0  0  0  0  0  0  0  0  0
    2.7461    3.4825   -4.8001 H   0  0  0  0  0  0  0  0  0  0  0  0
    4.1878    2.5523   -2.9221 H   0  0  0  0  0  0  0  0  0  0  0  0
    3.4520    1.3457   -3.9873 H   0  0  0  0  0  0  0  0  0  0  0  0
  1  2  2  0  0  0  0
  2 31  1  0  0  0  0
  2  3  1  0  0  0  0
  3 54  1  0  0  0  0
  4  5  1  0  0  0  0
  4  2  1  0  0  0  0
  5  6  1  0  0  0  0
  6 21  2  0  0  0  0
  7  6  1  0  0  0  0
  7 20  2  0  0  0  0
  8  7  1  0  0  0  0
  9  8  2  0  0  0  0
  9 14  1  0  0  0  0
 10 11  1  0  0  0  0
 10  9  1  0  0  0  0
 12 10  1  0  0  0  0
 13 10  1  0  0  0  0
 14 15  2  0  0  0  0
 15 20  1  0  0  0  0
 15 16  1  0  0  0  0
 16 17  1  0  0  0  0
 16 18  1  0  0  0  0
 19 16  1  0  0  0  0
 20 57  1  0  0  0  0
 21 22  1  0  0  0  0
 21 58  1  0  0  0  0
 22 27  1  0  0  0  0
 23 22  2  0  0  0  0
 23 24  1  0  0  0  0
 24 25  1  0  0  0  0
 24 59  1  0  0  0  0
 25 62  1  0  0  0  0
 25 26  1  0  0  0  0
 26 64  1  0  0  0  0
 26 63  1  0  0  0  0
 27 26  1  0  0  0  0
 27 65  1  0  0  0  0
 28  5  2  0  0  0  0
 28 23  1  0  0  0  0
 29 28  1  0  0  0  0
 29 30  2  0  0  0  0
 30 31  1  0  0  0  0
 32 30  1  0  0  0  0
 32 33  1  0  0  0  0
 33 46  1  0  0  0  0
 34 33  2  0  0  0  0
 34 35  1  0  0  0  0
 35 40  2  0  0  0  0
 36 39  1  0  0  0  0
 36 35  1  0  0  0  0
 37 36  1  0  0  0  0
 38 36  1  0  0  0  0
 40 68  1  0  0  0  0
 40 41  1  0  0  0  0
 41 42  1  0  0  0  0
 42 43  1  0  0  0  0
 42 45  1  0  0  0  0
 42 44  1  0  0  0  0
 46 69  1  0  0  0  0
 46 41  2  0  0  0  0
 47 32  2  0  0  0  0
 48 49  2  0  0  0  0
 48 47  1  0  0  0  0
 49 29  1  0  0  0  0
 50 72  1  0  0  0  0
 50 49  1  0  0  0  0
 51 52  1  0  0  0  0
 51 50  1  0  0  0  0
 52 53  1  0  0  0  0
 52 75  1  0  0  0  0
 53 77  1  0  0  0  0
 53 48  1  0  0  0  0
 55  8  1  0  0  0  0
 56 14  1  0  0  0  0
 60 24  1  0  0  0  0
 61 25  1  0  0  0  0
 66 27  1  0  0  0  0
 67 34  1  0  0  0  0
 70 47  1  0  0  0  0
 71 50  1  0  0  0  0
 73 51  1  0  0  0  0
 74 51  1  0  0  0  0
 76 52  1  0  0  0  0
 78 53  1  0  0  0  0
M  END
$$$$
