O=P1(O)OC2=C(C3=CC(C4=C(C)C=C(C)C=C4C)=CC(C5=C(C)C=C(C)C=C5C)=C3)C=C6C(CCCC6)=C2C7=C(O1)C(C8=CC(C9=C(C)C=C(C)C=C9C)=CC(C%10=C(C)C=C(C)C=C%10C)=C8)=CC%11=C7CCCC%11
 OpenBabel09032010383D

142152  0  0  0  0  0  0  0  0999 V2000
   -0.4677   -1.4745   -0.9715 O   0  0  0  0  0  0  0  0  0  0  0  0
    0.0529   -0.4229   -0.0438 P   0  0  0  0  0  0  0  0  0  0  0  0
    0.6929    0.8376   -0.8144 O   0  0  0  0  0  0  0  0  0  0  0  0
   -1.0220    0.2707    0.9377 O   0  0  0  0  0  0  0  0  0  0  0  0
   -1.4659   -0.5010    1.9920 C   0  0  0  0  0  0  0  0  0  0  0  0
   -2.7830   -0.9984    1.9153 C   0  0  0  0  0  0  0  0  0  0  0  0
   -3.6629   -0.6857    0.7773 C   0  0  0  0  0  0  0  0  0  0  0  0
   -4.1385   -1.7038   -0.0622 C   0  0  0  0  0  0  0  0  0  0  0  0
   -4.9086   -1.4172   -1.2003 C   0  0  0  0  0  0  0  0  0  0  0  0
   -5.3446   -2.4984   -2.1015 C   0  0  0  0  0  0  0  0  0  0  0  0
   -6.6730   -2.9893   -2.0563 C   0  0  0  0  0  0  0  0  0  0  0  0
   -7.6898   -2.4256   -1.0970 C   0  0  0  0  0  0  0  0  0  0  0  0
   -7.0686   -4.0188   -2.9280 C   0  0  0  0  0  0  0  0  0  0  0  0
   -6.1695   -4.5798   -3.8388 C   0  0  0  0  0  0  0  0  0  0  0  0
   -6.5945   -5.7093   -4.7297 C   0  0  0  0  0  0  0  0  0  0  0  0
   -4.8532   -4.1131   -3.8660 C   0  0  0  0  0  0  0  0  0  0  0  0
   -4.4343   -3.0695   -3.0251 C   0  0  0  0  0  0  0  0  0  0  0  0
   -2.9961   -2.6200   -3.1074 C   0  0  0  0  0  0  0  0  0  0  0  0
   -5.2132   -0.0790   -1.4878 C   0  0  0  0  0  0  0  0  0  0  0  0
   -4.7650    0.9616   -0.6628 C   0  0  0  0  0  0  0  0  0  0  0  0
   -5.0550    2.3664   -0.9981 C   0  0  0  0  0  0  0  0  0  0  0  0
   -4.1100    3.1417   -1.7160 C   0  0  0  0  0  0  0  0  0  0  0  0
   -2.7859    2.5641   -2.1522 C   0  0  0  0  0  0  0  0  0  0  0  0
   -4.3977    4.4810   -2.0294 C   0  0  0  0  0  0  0  0  0  0  0  0
   -5.6038    5.0705   -1.6424 C   0  0  0  0  0  0  0  0  0  0  0  0
   -5.9136    6.4887   -2.0206 C   0  0  0  0  0  0  0  0  0  0  0  0
   -6.5425    4.3011   -0.9500 C   0  0  0  0  0  0  0  0  0  0  0  0
   -6.2807    2.9619   -0.6140 C   0  0  0  0  0  0  0  0  0  0  0  0
   -7.3308    2.1857    0.1390 C   0  0  0  0  0  0  0  0  0  0  0  0
   -4.0012    0.6416    0.4694 C   0  0  0  0  0  0  0  0  0  0  0  0
   -3.2225   -1.8314    2.9453 C   0  0  0  0  0  0  0  0  0  0  0  0
   -2.3710   -2.1734    3.9997 C   0  0  0  0  0  0  0  0  0  0  0  0
   -1.0528   -1.6580    4.0566 C   0  0  0  0  0  0  0  0  0  0  0  0
   -0.1319   -2.3199    5.0686 C   0  0  0  0  0  0  0  0  0  0  0  0
   -0.7747   -2.5560    6.4405 C   0  0  0  0  0  0  0  0  0  0  0  0
   -2.2936   -2.7340    6.4173 C   0  0  0  0  0  0  0  0  0  0  0  0
   -2.8236   -3.1561    5.0522 C   0  0  0  0  0  0  0  0  0  0  0  0
   -0.5798   -0.7450    3.0700 C   0  0  0  0  0  0  0  0  0  0  0  0
    0.6982   -0.0792    3.1169 C   0  0  0  0  0  0  0  0  0  0  0  0
    1.5989   -0.1597    2.0235 C   0  0  0  0  0  0  0  0  0  0  0  0
    1.2527   -0.9095    0.9165 O   0  0  0  0  0  0  0  0  0  0  0  0
    2.8693    0.4535    2.0034 C   0  0  0  0  0  0  0  0  0  0  0  0
    3.7473    0.3963    0.8207 C   0  0  0  0  0  0  0  0  0  0  0  0
    4.1205   -0.8287    0.2500 C   0  0  0  0  0  0  0  0  0  0  0  0
    4.8465   -0.8921   -0.9488 C   0  0  0  0  0  0  0  0  0  0  0  0
    5.1232   -2.1936   -1.5782 C   0  0  0  0  0  0  0  0  0  0  0  0
    4.1134   -2.8493   -2.3268 C   0  0  0  0  0  0  0  0  0  0  0  0
    2.7381   -2.2544   -2.5026 C   0  0  0  0  0  0  0  0  0  0  0  0
    4.3697   -4.1070   -2.8926 C   0  0  0  0  0  0  0  0  0  0  0  0
    5.6216   -4.7148   -2.7657 C   0  0  0  0  0  0  0  0  0  0  0  0
    5.8712   -6.0703   -3.3571 C   0  0  0  0  0  0  0  0  0  0  0  0
    6.6179   -4.0687   -2.0286 C   0  0  0  0  0  0  0  0  0  0  0  0
    6.3849   -2.8185   -1.4310 C   0  0  0  0  0  0  0  0  0  0  0  0
    7.4964   -2.1732   -0.6442 C   0  0  0  0  0  0  0  0  0  0  0  0
    5.2441    0.3036   -1.5608 C   0  0  0  0  0  0  0  0  0  0  0  0
    4.9161    1.5460   -1.0023 C   0  0  0  0  0  0  0  0  0  0  0  0
    5.3069    2.7981   -1.6716 C   0  0  0  0  0  0  0  0  0  0  0  0
    6.5335    3.4308   -1.3559 C   0  0  0  0  0  0  0  0  0  0  0  0
    7.4810    2.8471   -0.3391 C   0  0  0  0  0  0  0  0  0  0  0  0
    6.8859    4.6305   -1.9967 C   0  0  0  0  0  0  0  0  0  0  0  0
    6.0517    5.2107   -2.9558 C   0  0  0  0  0  0  0  0  0  0  0  0
    6.4294    6.5081   -3.6075 C   0  0  0  0  0  0  0  0  0  0  0  0
    4.8356    4.5934   -3.2584 C   0  0  0  0  0  0  0  0  0  0  0  0
    4.4554    3.3927   -2.6357 C   0  0  0  0  0  0  0  0  0  0  0  0
    3.1321    2.7725   -3.0092 C   0  0  0  0  0  0  0  0  0  0  0  0
    4.1713    1.5765    0.1872 C   0  0  0  0  0  0  0  0  0  0  0  0
    3.2537    1.1826    3.1296 C   0  0  0  0  0  0  0  0  0  0  0  0
    2.3961    1.3429    4.2265 C   0  0  0  0  0  0  0  0  0  0  0  0
    1.1094    0.7522    4.2092 C   0  0  0  0  0  0  0  0  0  0  0  0
    0.1404    1.0736    5.3404 C   0  0  0  0  0  0  0  0  0  0  0  0
    0.5146    2.3131    6.1506 C   0  0  0  0  0  0  0  0  0  0  0  0
    1.9690    2.2223    6.5791 C   0  0  0  0  0  0  0  0  0  0  0  0
    2.8704    2.2363    5.3515 C   0  0  0  0  0  0  0  0  0  0  0  0
    1.1436    1.4479   -0.2063 H   0  0  0  0  0  0  0  0  0  0  0  0
   -3.8689   -2.7395    0.1428 H   0  0  0  0  0  0  0  0  0  0  0  0
   -8.6116   -3.0174   -1.0978 H   0  0  0  0  0  0  0  0  0  0  0  0
   -7.3046   -2.4374   -0.0723 H   0  0  0  0  0  0  0  0  0  0  0  0
   -7.9528   -1.4018   -1.3802 H   0  0  0  0  0  0  0  0  0  0  0  0
   -8.0910   -4.3912   -2.8917 H   0  0  0  0  0  0  0  0  0  0  0  0
   -7.6554   -5.6254   -4.9879 H   0  0  0  0  0  0  0  0  0  0  0  0
   -6.4272   -6.6663   -4.2260 H   0  0  0  0  0  0  0  0  0  0  0  0
   -6.0310   -5.6999   -5.6686 H   0  0  0  0  0  0  0  0  0  0  0  0
   -4.1381   -4.5618   -4.5528 H   0  0  0  0  0  0  0  0  0  0  0  0
   -2.9215   -1.5281   -3.1155 H   0  0  0  0  0  0  0  0  0  0  0  0
   -2.4307   -3.0245   -2.2627 H   0  0  0  0  0  0  0  0  0  0  0  0
   -2.5224   -2.9728   -4.0301 H   0  0  0  0  0  0  0  0  0  0  0  0
   -5.7896    0.1573   -2.3813 H   0  0  0  0  0  0  0  0  0  0  0  0
   -2.2232    3.2740   -2.7680 H   0  0  0  0  0  0  0  0  0  0  0  0
   -2.1688    2.3243   -1.2806 H   0  0  0  0  0  0  0  0  0  0  0  0
   -2.9368    1.6641   -2.7567 H   0  0  0  0  0  0  0  0  0  0  0  0
   -3.6720    5.0706   -2.5867 H   0  0  0  0  0  0  0  0  0  0  0  0
   -6.5672    6.9575   -1.2775 H   0  0  0  0  0  0  0  0  0  0  0  0
   -4.9988    7.0885   -2.0715 H   0  0  0  0  0  0  0  0  0  0  0  0
   -6.4095    6.5160   -2.9958 H   0  0  0  0  0  0  0  0  0  0  0  0
   -7.4927    4.7497   -0.6659 H   0  0  0  0  0  0  0  0  0  0  0  0
   -6.9133    1.7625    1.0581 H   0  0  0  0  0  0  0  0  0  0  0  0
   -8.1690    2.8268    0.4328 H   0  0  0  0  0  0  0  0  0  0  0  0
   -7.7332    1.3831   -0.4871 H   0  0  0  0  0  0  0  0  0  0  0  0
   -3.6381    1.4486    1.1049 H   0  0  0  0  0  0  0  0  0  0  0  0
   -4.2307   -2.2415    2.9108 H   0  0  0  0  0  0  0  0  0  0  0  0
    0.8108   -1.7845    5.2061 H   0  0  0  0  0  0  0  0  0  0  0  0
    0.1503   -3.2929    4.6423 H   0  0  0  0  0  0  0  0  0  0  0  0
   -0.3069   -3.4384    6.8949 H   0  0  0  0  0  0  0  0  0  0  0  0
   -0.5370   -1.7215    7.1113 H   0  0  0  0  0  0  0  0  0  0  0  0
   -2.7593   -1.7799    6.6995 H   0  0  0  0  0  0  0  0  0  0  0  0
   -2.5947   -3.4596    7.1817 H   0  0  0  0  0  0  0  0  0  0  0  0
   -3.9183   -3.1968    5.0940 H   0  0  0  0  0  0  0  0  0  0  0  0
   -2.4637   -4.1575    4.7882 H   0  0  0  0  0  0  0  0  0  0  0  0
    3.8051   -1.7607    0.7198 H   0  0  0  0  0  0  0  0  0  0  0  0
    2.7980   -1.2055   -2.8093 H   0  0  0  0  0  0  0  0  0  0  0  0
    2.1757   -2.3352   -1.5683 H   0  0  0  0  0  0  0  0  0  0  0  0
    2.1734   -2.7784   -3.2815 H   0  0  0  0  0  0  0  0  0  0  0  0
    3.5823   -4.6174   -3.4440 H   0  0  0  0  0  0  0  0  0  0  0  0
    6.9239   -6.1877   -3.6352 H   0  0  0  0  0  0  0  0  0  0  0  0
    5.6072   -6.8483   -2.6342 H   0  0  0  0  0  0  0  0  0  0  0  0
    5.2782   -6.2155   -4.2662 H   0  0  0  0  0  0  0  0  0  0  0  0
    7.5885   -4.5483   -1.9126 H   0  0  0  0  0  0  0  0  0  0  0  0
    7.8347   -1.2591   -1.1421 H   0  0  0  0  0  0  0  0  0  0  0  0
    8.3617   -2.8387   -0.5533 H   0  0  0  0  0  0  0  0  0  0  0  0
    7.1640   -1.9382    0.3720 H   0  0  0  0  0  0  0  0  0  0  0  0
    5.7962    0.2664   -2.4992 H   0  0  0  0  0  0  0  0  0  0  0  0
    7.0043    2.7998    0.6451 H   0  0  0  0  0  0  0  0  0  0  0  0
    8.3843    3.4579   -0.2353 H   0  0  0  0  0  0  0  0  0  0  0  0
    7.8001    1.8451   -0.6431 H   0  0  0  0  0  0  0  0  0  0  0  0
    7.8266    5.1177   -1.7461 H   0  0  0  0  0  0  0  0  0  0  0  0
    6.0132    6.5737   -4.6183 H   0  0  0  0  0  0  0  0  0  0  0  0
    6.0535    7.3477   -3.0148 H   0  0  0  0  0  0  0  0  0  0  0  0
    7.5170    6.5976   -3.6987 H   0  0  0  0  0  0  0  0  0  0  0  0
    4.1741    5.0509   -3.9919 H   0  0  0  0  0  0  0  0  0  0  0  0
    2.6346    3.3380   -3.8046 H   0  0  0  0  0  0  0  0  0  0  0  0
    3.2738    1.7524   -3.3797 H   0  0  0  0  0  0  0  0  0  0  0  0
    2.4604    2.7626   -2.1454 H   0  0  0  0  0  0  0  0  0  0  0  0
    3.8939    2.5450    0.6022 H   0  0  0  0  0  0  0  0  0  0  0  0
    4.2328    1.6617    3.1476 H   0  0  0  0  0  0  0  0  0  0  0  0
   -0.8677    1.2315    4.9404 H   0  0  0  0  0  0  0  0  0  0  0  0
    0.1071    0.2253    6.0274 H   0  0  0  0  0  0  0  0  0  0  0  0
   -0.1346    2.3865    7.0304 H   0  0  0  0  0  0  0  0  0  0  0  0
    0.3544    3.2196    5.5534 H   0  0  0  0  0  0  0  0  0  0  0  0
    2.1298    1.3007    7.1526 H   0  0  0  0  0  0  0  0  0  0  0  0
    2.2271    3.0592    7.2375 H   0  0  0  0  0  0  0  0  0  0  0  0
    3.8832    1.9431    5.6536 H   0  0  0  0  0  0  0  0  0  0  0  0
    2.9255    3.2621    4.9645 H   0  0  0  0  0  0  0  0  0  0  0  0
  1  2  2  0  0  0  0
  2 41  1  0  0  0  0
  2  4  1  0  0  0  0
  3 74  1  0  0  0  0
  3  2  1  0  0  0  0
  4  5  1  0  0  0  0
  5 38  1  0  0  0  0
  6  5  2  0  0  0  0
  6 31  1  0  0  0  0
  7  6  1  0  0  0  0
  8 75  1  0  0  0  0
  8  7  2  0  0  0  0
  9  8  1  0  0  0  0
 10 11  1  0  0  0  0
 10  9  1  0  0  0  0
 11 12  1  0  0  0  0
 12 77  1  0  0  0  0
 13 79  1  0  0  0  0
 13 11  2  0  0  0  0
 14 13  1  0  0  0  0
 15 81  1  0  0  0  0
 15 14  1  0  0  0  0
 16 14  2  0  0  0  0
 16 17  1  0  0  0  0
 17 10  2  0  0  0  0
 18 17  1  0  0  0  0
 18 85  1  0  0  0  0
 19  9  2  0  0  0  0
 19 20  1  0  0  0  0
 20 30  2  0  0  0  0
 21 20  1  0  0  0  0
 21 28  2  0  0  0  0
 22 21  1  0  0  0  0
 23 22  1  0  0  0  0
 23 89  1  0  0  0  0
 24 22  2  0  0  0  0
 24 25  1  0  0  0  0
 25 27  2  0  0  0  0
 26 25  1  0  0  0  0
 26 92  1  0  0  0  0
 27 95  1  0  0  0  0
 27 28  1  0  0  0  0
 28 29  1  0  0  0  0
 29 97  1  0  0  0  0
 29 96  1  0  0  0  0
 30  7  1  0  0  0  0
 30 99  1  0  0  0  0
 31 32  2  0  0  0  0
 32 33  1  0  0  0  0
 32 37  1  0  0  0  0
 33 34  1  0  0  0  0
 34101  1  0  0  0  0
 34 35  1  0  0  0  0
 35103  1  0  0  0  0
 35104  1  0  0  0  0
 36 35  1  0  0  0  0
 36105  1  0  0  0  0
 36106  1  0  0  0  0
 37107  1  0  0  0  0
 37 36  1  0  0  0  0
 38 39  1  0  0  0  0
 38 33  2  0  0  0  0
 39 69  2  0  0  0  0
 40 39  1  0  0  0  0
 41 40  1  0  0  0  0
 42 40  2  0  0  0  0
 42 67  1  0  0  0  0
 43 42  1  0  0  0  0
 44109  1  0  0  0  0
 44 43  1  0  0  0  0
 45 44  2  0  0  0  0
 46 53  1  0  0  0  0
 46 45  1  0  0  0  0
 47 46  2  0  0  0  0
 48 47  1  0  0  0  0
 48111  1  0  0  0  0
 49 50  2  0  0  0  0
 49 47  1  0  0  0  0
 50 52  1  0  0  0  0
 51 50  1  0  0  0  0
 51115  1  0  0  0  0
 52117  1  0  0  0  0
 52 53  2  0  0  0  0
 53 54  1  0  0  0  0
 54119  1  0  0  0  0
 54120  1  0  0  0  0
 55 56  2  0  0  0  0
 55 45  1  0  0  0  0
 56 66  1  0  0  0  0
 57 58  1  0  0  0  0
 57 56  1  0  0  0  0
 58 59  1  0  0  0  0
 59123  1  0  0  0  0
 59122  1  0  0  0  0
 60125  1  0  0  0  0
 60 58  2  0  0  0  0
 61 60  1  0  0  0  0
 62127  1  0  0  0  0
 62 61  1  0  0  0  0
 63 61  2  0  0  0  0
 63 64  1  0  0  0  0
 64 57  2  0  0  0  0
 65 64  1  0  0  0  0
 65132  1  0  0  0  0
 66133  1  0  0  0  0
 66 43  2  0  0  0  0
 67134  1  0  0  0  0
 67 68  2  0  0  0  0
 68 73  1  0  0  0  0
 69 68  1  0  0  0  0
 69 70  1  0  0  0  0
 70136  1  0  0  0  0
 70 71  1  0  0  0  0
 71 72  1  0  0  0  0
 71137  1  0  0  0  0
 72139  1  0  0  0  0
 72140  1  0  0  0  0
 73141  1  0  0  0  0
 73 72  1  0  0  0  0
 76 12  1  0  0  0  0
 78 12  1  0  0  0  0
 80 15  1  0  0  0  0
 82 15  1  0  0  0  0
 83 16  1  0  0  0  0
 84 18  1  0  0  0  0
 86 18  1  0  0  0  0
 87 19  1  0  0  0  0
 88 23  1  0  0  0  0
 90 23  1  0  0  0  0
 91 24  1  0  0  0  0
 93 26  1  0  0  0  0
 94 26  1  0  0  0  0
 98 29  1  0  0  0  0
100 31  1  0  0  0  0
102 34  1  0  0  0  0
108 37  1  0  0  0  0
110 48  1  0  0  0  0
112 48  1  0  0  0  0
113 49  1  0  0  0  0
114 51  1  0  0  0  0
116 51  1  0  0  0  0
118 54  1  0  0  0  0
121 55  1  0  0  0  0
124 59  1  0  0  0  0
126 62  1  0  0  0  0
128 62  1  0  0  0  0
129 63  1  0  0  0  0
130 65  1  0  0  0  0
131 65  1  0  0  0  0
135 70  1  0  0  0  0
138 71  1  0  0  0  0
142 73  1  0  0  0  0
M  END
$$$$
