O=P1(O)OC2=C([Si](C3=CC=CC=C3)(C)C4=CC=CC=C4)C=C5C(C=CC=C5)=C2C6=C(O1)C([Si](C7=CC=CC=C7)(C8=CC=CC=C8)C)=CC9=C6C=CC=C9
 OpenBabel09032010383D

 90 98  0  0  0  0  0  0  0  0999 V2000
    1.2812   -1.8805   -2.4225 O   0  0  0  0  0  0  0  0  0  0  0  0
    0.4203   -1.4017   -1.2930 P   0  0  0  0  0  0  0  0  0  0  0  0
   -0.2935   -2.5997   -0.4998 O   0  0  0  0  0  0  0  0  0  0  0  0
    1.1959   -0.6076   -0.1267 O   0  0  0  0  0  0  0  0  0  0  0  0
    1.7018    0.6209   -0.4672 C   0  0  0  0  0  0  0  0  0  0  0  0
    3.0966    0.7568   -0.5954 C   0  0  0  0  0  0  0  0  0  0  0  0
    4.3632   -0.6298   -0.3076 Si  0  0  0  0  0  0  0  0  0  0  0  0
    5.7097    0.1036    0.8222 C   0  0  0  0  0  0  0  0  0  0  0  0
    5.4256    1.1221    1.7529 C   0  0  0  0  0  0  0  0  0  0  0  0
    6.4291    1.6509    2.5683 C   0  0  0  0  0  0  0  0  0  0  0  0
    7.7316    1.1699    2.4742 C   0  0  0  0  0  0  0  0  0  0  0  0
    8.0331    0.1576    1.5674 C   0  0  0  0  0  0  0  0  0  0  0  0
    7.0324   -0.3735    0.7487 C   0  0  0  0  0  0  0  0  0  0  0  0
    5.0697   -1.2036   -1.9332 C   0  0  0  0  0  0  0  0  0  0  0  0
    3.5902   -2.0169    0.7046 C   0  0  0  0  0  0  0  0  0  0  0  0
    3.3160   -1.8734    2.0779 C   0  0  0  0  0  0  0  0  0  0  0  0
    2.7464   -2.9174    2.8136 C   0  0  0  0  0  0  0  0  0  0  0  0
    2.4302   -4.1211    2.1911 C   0  0  0  0  0  0  0  0  0  0  0  0
    2.6824   -4.2827    0.8325 C   0  0  0  0  0  0  0  0  0  0  0  0
    3.2586   -3.2437    0.0961 C   0  0  0  0  0  0  0  0  0  0  0  0
    3.5740    2.0095   -1.0144 C   0  0  0  0  0  0  0  0  0  0  0  0
    2.7141    3.0763   -1.2965 C   0  0  0  0  0  0  0  0  0  0  0  0
    1.3140    2.9236   -1.1347 C   0  0  0  0  0  0  0  0  0  0  0  0
    0.5133    4.0283   -1.5250 C   0  0  0  0  0  0  0  0  0  0  0  0
    1.0602    5.2301   -1.9830 C   0  0  0  0  0  0  0  0  0  0  0  0
    2.4347    5.3649   -2.0871 C   0  0  0  0  0  0  0  0  0  0  0  0
    3.2546    4.2912   -1.7525 C   0  0  0  0  0  0  0  0  0  0  0  0
    0.7742    1.6808   -0.6444 C   0  0  0  0  0  0  0  0  0  0  0  0
   -0.6241    1.4912   -0.3018 C   0  0  0  0  0  0  0  0  0  0  0  0
   -1.3960    0.4289   -0.8624 C   0  0  0  0  0  0  0  0  0  0  0  0
   -0.8054   -0.4547   -1.7375 O   0  0  0  0  0  0  0  0  0  0  0  0
   -2.7865    0.2858   -0.6621 C   0  0  0  0  0  0  0  0  0  0  0  0
   -3.8070   -1.1409   -1.4181 Si  0  0  0  0  0  0  0  0  0  0  0  0
   -3.5948   -2.5142   -0.1309 C   0  0  0  0  0  0  0  0  0  0  0  0
   -3.6953   -2.2528    1.2502 C   0  0  0  0  0  0  0  0  0  0  0  0
   -3.5121   -3.2693    2.1906 C   0  0  0  0  0  0  0  0  0  0  0  0
   -3.2269   -4.5648    1.7716 C   0  0  0  0  0  0  0  0  0  0  0  0
   -3.1292   -4.8467    0.4123 C   0  0  0  0  0  0  0  0  0  0  0  0
   -3.3128   -3.8330   -0.5322 C   0  0  0  0  0  0  0  0  0  0  0  0
   -5.6173   -0.6023   -1.3960 C   0  0  0  0  0  0  0  0  0  0  0  0
   -6.6086   -1.3176   -0.6998 C   0  0  0  0  0  0  0  0  0  0  0  0
   -7.9415   -0.8951   -0.7112 C   0  0  0  0  0  0  0  0  0  0  0  0
   -8.3108    0.2432   -1.4222 C   0  0  0  0  0  0  0  0  0  0  0  0
   -7.3491    0.9596   -2.1278 C   0  0  0  0  0  0  0  0  0  0  0  0
   -6.0161    0.5404   -2.1197 C   0  0  0  0  0  0  0  0  0  0  0  0
   -3.2916   -1.6246   -3.1321 C   0  0  0  0  0  0  0  0  0  0  0  0
   -3.4185    1.2190    0.1736 C   0  0  0  0  0  0  0  0  0  0  0  0
   -2.7084    2.2312    0.8219 C   0  0  0  0  0  0  0  0  0  0  0  0
   -1.3118    2.3627    0.6197 C   0  0  0  0  0  0  0  0  0  0  0  0
   -0.6632    3.3510    1.4078 C   0  0  0  0  0  0  0  0  0  0  0  0
   -1.3533    4.1986    2.2794 C   0  0  0  0  0  0  0  0  0  0  0  0
   -2.7262    4.0794    2.4110 C   0  0  0  0  0  0  0  0  0  0  0  0
   -3.3972    3.0957    1.6916 C   0  0  0  0  0  0  0  0  0  0  0  0
   -0.7665   -2.3145    0.3032 H   0  0  0  0  0  0  0  0  0  0  0  0
    4.4165    1.5181    1.8607 H   0  0  0  0  0  0  0  0  0  0  0  0
    6.1913    2.4380    3.2794 H   0  0  0  0  0  0  0  0  0  0  0  0
    8.5100    1.5808    3.1107 H   0  0  0  0  0  0  0  0  0  0  0  0
    9.0494   -0.2231    1.4985 H   0  0  0  0  0  0  0  0  0  0  0  0
    7.3048   -1.1699    0.0579 H   0  0  0  0  0  0  0  0  0  0  0  0
    5.6111   -0.3939   -2.4323 H   0  0  0  0  0  0  0  0  0  0  0  0
    5.7653   -2.0365   -1.7930 H   0  0  0  0  0  0  0  0  0  0  0  0
    4.2773   -1.5398   -2.6089 H   0  0  0  0  0  0  0  0  0  0  0  0
    3.5424   -0.9455    2.5999 H   0  0  0  0  0  0  0  0  0  0  0  0
    2.5529   -2.7882    3.8752 H   0  0  0  0  0  0  0  0  0  0  0  0
    1.9879   -4.9322    2.7624 H   0  0  0  0  0  0  0  0  0  0  0  0
    2.4323   -5.2188    0.3395 H   0  0  0  0  0  0  0  0  0  0  0  0
    3.4291   -3.4095   -0.9676 H   0  0  0  0  0  0  0  0  0  0  0  0
    4.6474    2.1603   -1.1482 H   0  0  0  0  0  0  0  0  0  0  0  0
   -0.5725    3.9621   -1.4859 H   0  0  0  0  0  0  0  0  0  0  0  0
    0.4061    6.0523   -2.2597 H   0  0  0  0  0  0  0  0  0  0  0  0
    2.8698    6.2949   -2.4422 H   0  0  0  0  0  0  0  0  0  0  0  0
    4.3315    4.4088   -1.8624 H   0  0  0  0  0  0  0  0  0  0  0  0
   -3.9223   -1.2536    1.6189 H   0  0  0  0  0  0  0  0  0  0  0  0
   -3.5960   -3.0485    3.2520 H   0  0  0  0  0  0  0  0  0  0  0  0
   -3.0827   -5.3556    2.5030 H   0  0  0  0  0  0  0  0  0  0  0  0
   -2.9026   -5.8578    0.0823 H   0  0  0  0  0  0  0  0  0  0  0  0
   -3.2160   -4.0954   -1.5849 H   0  0  0  0  0  0  0  0  0  0  0  0
   -6.3672   -2.2197   -0.1393 H   0  0  0  0  0  0  0  0  0  0  0  0
   -8.6927   -1.4611   -0.1658 H   0  0  0  0  0  0  0  0  0  0  0  0
   -9.3479    0.5680   -1.4305 H   0  0  0  0  0  0  0  0  0  0  0  0
   -7.6347    1.8457   -2.6888 H   0  0  0  0  0  0  0  0  0  0  0  0
   -5.2919    1.1256   -2.6863 H   0  0  0  0  0  0  0  0  0  0  0  0
   -3.2568   -0.7533   -3.7936 H   0  0  0  0  0  0  0  0  0  0  0  0
   -3.9984   -2.3399   -3.5648 H   0  0  0  0  0  0  0  0  0  0  0  0
   -2.3039   -2.0945   -3.1459 H   0  0  0  0  0  0  0  0  0  0  0  0
   -4.4900    1.1414    0.3649 H   0  0  0  0  0  0  0  0  0  0  0  0
    0.4179    3.4695    1.3633 H   0  0  0  0  0  0  0  0  0  0  0  0
   -0.8093    4.9440    2.8532 H   0  0  0  0  0  0  0  0  0  0  0  0
   -3.2734    4.7350    3.0830 H   0  0  0  0  0  0  0  0  0  0  0  0
   -4.4738    3.0008    1.8268 H   0  0  0  0  0  0  0  0  0  0  0  0
  1  2  2  0  0  0  0
  2  3  1  0  0  0  0
  2  4  1  0  0  0  0
  3 54  1  0  0  0  0
  5  4  1  0  0  0  0
  6  5  1  0  0  0  0
  6  7  1  0  0  0  0
  7 15  1  0  0  0  0
  7  8  1  0  0  0  0
  8  9  1  0  0  0  0
  9 55  1  0  0  0  0
  9 10  2  0  0  0  0
 10 56  1  0  0  0  0
 11 10  1  0  0  0  0
 11 57  1  0  0  0  0
 12 11  2  0  0  0  0
 13  8  2  0  0  0  0
 13 12  1  0  0  0  0
 14 61  1  0  0  0  0
 14  7  1  0  0  0  0
 15 16  1  0  0  0  0
 16 63  1  0  0  0  0
 16 17  2  0  0  0  0
 17 64  1  0  0  0  0
 18 65  1  0  0  0  0
 18 17  1  0  0  0  0
 19 18  2  0  0  0  0
 20 15  2  0  0  0  0
 20 19  1  0  0  0  0
 21  6  2  0  0  0  0
 22 23  1  0  0  0  0
 22 21  1  0  0  0  0
 23 28  1  0  0  0  0
 24 69  1  0  0  0  0
 24 23  2  0  0  0  0
 25 24  1  0  0  0  0
 26 25  2  0  0  0  0
 26 27  1  0  0  0  0
 27 22  2  0  0  0  0
 28  5  2  0  0  0  0
 28 29  1  0  0  0  0
 29 49  2  0  0  0  0
 30 32  2  0  0  0  0
 30 29  1  0  0  0  0
 31  2  1  0  0  0  0
 31 30  1  0  0  0  0
 32 47  1  0  0  0  0
 33 40  1  0  0  0  0
 33 32  1  0  0  0  0
 33 34  1  0  0  0  0
 34 35  1  0  0  0  0
 35 73  1  0  0  0  0
 35 36  2  0  0  0  0
 36 74  1  0  0  0  0
 37 36  1  0  0  0  0
 37 75  1  0  0  0  0
 38 37  2  0  0  0  0
 39 34  2  0  0  0  0
 39 38  1  0  0  0  0
 40 41  2  0  0  0  0
 41 78  1  0  0  0  0
 42 41  1  0  0  0  0
 42 79  1  0  0  0  0
 43 42  2  0  0  0  0
 44 45  2  0  0  0  0
 44 43  1  0  0  0  0
 45 40  1  0  0  0  0
 46 33  1  0  0  0  0
 47 86  1  0  0  0  0
 47 48  2  0  0  0  0
 48 53  1  0  0  0  0
 49 48  1  0  0  0  0
 49 50  1  0  0  0  0
 50 51  2  0  0  0  0
 51 52  1  0  0  0  0
 51 88  1  0  0  0  0
 52 89  1  0  0  0  0
 53 90  1  0  0  0  0
 53 52  2  0  0  0  0
 58 12  1  0  0  0  0
 59 13  1  0  0  0  0
 60 14  1  0  0  0  0
 62 14  1  0  0  0  0
 66 19  1  0  0  0  0
 67 20  1  0  0  0  0
 68 21  1  0  0  0  0
 70 25  1  0  0  0  0
 71 26  1  0  0  0  0
 72 27  1  0  0  0  0
 76 38  1  0  0  0  0
 77 39  1  0  0  0  0
 80 43  1  0  0  0  0
 81 44  1  0  0  0  0
 82 45  1  0  0  0  0
 83 46  1  0  0  0  0
 84 46  1  0  0  0  0
 85 46  1  0  0  0  0
 87 50  1  0  0  0  0
M  END
$$$$
