O=P1(O)OC2=C(C3=CC(C4=CC=C(OC)C=C4)=CC(C5=CC=C(OC)C=C5)=C3)C=C6C(C=CC=C6)=C2C7=C(O1)C(C8=CC(C9=CC=C(OC)C=C9)=CC(C%10=CC=C(OC)C=C%10)=C8)=CC%11=C7C=CC=C%11
 OpenBabel09032010383D

114124  0  0  0  0  0  0  0  0999 V2000
   -0.1600    0.5163   -1.4158 O   0  0  0  0  0  0  0  0  0  0  0  0
    0.2331   -0.0161   -0.0729 P   0  0  0  0  0  0  0  0  0  0  0  0
    0.5622    1.1901    0.9395 O   0  0  0  0  0  0  0  0  0  0  0  0
   -0.8994   -0.8510    0.7089 O   0  0  0  0  0  0  0  0  0  0  0  0
   -1.1645   -2.1206    0.2492 C   0  0  0  0  0  0  0  0  0  0  0  0
   -2.4090   -2.3380   -0.3749 C   0  0  0  0  0  0  0  0  0  0  0  0
   -3.4407   -1.2854   -0.5271 C   0  0  0  0  0  0  0  0  0  0  0  0
   -4.0733   -1.0671   -1.7652 C   0  0  0  0  0  0  0  0  0  0  0  0
   -5.0846   -0.1058   -1.9280 C   0  0  0  0  0  0  0  0  0  0  0  0
   -5.7667    0.0691   -3.2204 C   0  0  0  0  0  0  0  0  0  0  0  0
   -5.7847    1.3123   -3.8711 C   0  0  0  0  0  0  0  0  0  0  0  0
   -6.4555    1.4860   -5.0901 C   0  0  0  0  0  0  0  0  0  0  0  0
   -7.1244    0.4157   -5.6819 C   0  0  0  0  0  0  0  0  0  0  0  0
   -7.8222    0.4493   -6.8579 O   0  0  0  0  0  0  0  0  0  0  0  0
   -7.8641    1.6941   -7.5442 C   0  0  0  0  0  0  0  0  0  0  0  0
   -7.1095   -0.8267   -5.0472 C   0  0  0  0  0  0  0  0  0  0  0  0
   -6.4382   -1.0000   -3.8320 C   0  0  0  0  0  0  0  0  0  0  0  0
   -5.4446    0.6712   -0.8157 C   0  0  0  0  0  0  0  0  0  0  0  0
   -4.8354    0.4987    0.4379 C   0  0  0  0  0  0  0  0  0  0  0  0
   -5.2289    1.3283    1.5902 C   0  0  0  0  0  0  0  0  0  0  0  0
   -5.2458    2.7299    1.5010 C   0  0  0  0  0  0  0  0  0  0  0  0
   -5.6222    3.5267    2.5908 C   0  0  0  0  0  0  0  0  0  0  0  0
   -5.9902    2.9346    3.7969 C   0  0  0  0  0  0  0  0  0  0  0  0
   -6.3770    3.5903    4.9325 O   0  0  0  0  0  0  0  0  0  0  0  0
   -6.4692    5.0074    4.8575 C   0  0  0  0  0  0  0  0  0  0  0  0
   -5.9729    1.5435    3.9016 C   0  0  0  0  0  0  0  0  0  0  0  0
   -5.5982    0.7489    2.8127 C   0  0  0  0  0  0  0  0  0  0  0  0
   -3.8462   -0.4924    0.5610 C   0  0  0  0  0  0  0  0  0  0  0  0
   -2.6609   -3.6275   -0.8568 C   0  0  0  0  0  0  0  0  0  0  0  0
   -1.7108   -4.6500   -0.7710 C   0  0  0  0  0  0  0  0  0  0  0  0
   -0.4666   -4.4130   -0.1327 C   0  0  0  0  0  0  0  0  0  0  0  0
    0.4727   -5.4761   -0.1768 C   0  0  0  0  0  0  0  0  0  0  0  0
    0.1813   -6.7157   -0.7522 C   0  0  0  0  0  0  0  0  0  0  0  0
   -1.0614   -6.9330   -1.3235 C   0  0  0  0  0  0  0  0  0  0  0  0
   -1.9984   -5.9039   -1.3378 C   0  0  0  0  0  0  0  0  0  0  0  0
   -0.1937   -3.1326    0.4689 C   0  0  0  0  0  0  0  0  0  0  0  0
    0.9828   -2.8655    1.2756 C   0  0  0  0  0  0  0  0  0  0  0  0
    1.8458   -1.7825    0.9715 C   0  0  0  0  0  0  0  0  0  0  0  0
    1.5568   -0.9302   -0.0749 O   0  0  0  0  0  0  0  0  0  0  0  0
    3.0935   -1.5841    1.6041 C   0  0  0  0  0  0  0  0  0  0  0  0
    3.9800   -0.4821    1.2092 C   0  0  0  0  0  0  0  0  0  0  0  0
    3.6065    0.8345    1.4935 C   0  0  0  0  0  0  0  0  0  0  0  0
    4.2858    1.9337    0.9520 C   0  0  0  0  0  0  0  0  0  0  0  0
    3.6878    3.2692    1.0798 C   0  0  0  0  0  0  0  0  0  0  0  0
    3.2886    3.7707    2.3282 C   0  0  0  0  0  0  0  0  0  0  0  0
    2.5366    4.9456    2.4288 C   0  0  0  0  0  0  0  0  0  0  0  0
    2.1736    5.6411    1.2782 C   0  0  0  0  0  0  0  0  0  0  0  0
    1.3790    6.7491    1.2270 O   0  0  0  0  0  0  0  0  0  0  0  0
    0.8520    7.2208    2.4602 C   0  0  0  0  0  0  0  0  0  0  0  0
    2.6163    5.1871    0.0360 C   0  0  0  0  0  0  0  0  0  0  0  0
    3.3658    4.0136   -0.0647 C   0  0  0  0  0  0  0  0  0  0  0  0
    5.4403    1.6884    0.1973 C   0  0  0  0  0  0  0  0  0  0  0  0
    5.8921    0.3782   -0.0460 C   0  0  0  0  0  0  0  0  0  0  0  0
    7.0827    0.1333   -0.8696 C   0  0  0  0  0  0  0  0  0  0  0  0
    7.1271    0.5500   -2.2073 C   0  0  0  0  0  0  0  0  0  0  0  0
    8.2530    0.3005   -2.9960 C   0  0  0  0  0  0  0  0  0  0  0  0
    9.3582   -0.3675   -2.4675 C   0  0  0  0  0  0  0  0  0  0  0  0
   10.3873   -0.5505   -3.3478 O   0  0  0  0  0  0  0  0  0  0  0  0
   11.5384   -1.2267   -2.8586 C   0  0  0  0  0  0  0  0  0  0  0  0
    9.3301   -0.7836   -1.1374 C   0  0  0  0  0  0  0  0  0  0  0  0
    8.1997   -0.5362   -0.3475 C   0  0  0  0  0  0  0  0  0  0  0  0
    5.1425   -0.6979    0.4603 C   0  0  0  0  0  0  0  0  0  0  0  0
    3.4681   -2.4531    2.6267 C   0  0  0  0  0  0  0  0  0  0  0  0
    2.6195   -3.4786    3.0474 C   0  0  0  0  0  0  0  0  0  0  0  0
    1.3698   -3.6841    2.4010 C   0  0  0  0  0  0  0  0  0  0  0  0
    0.5398   -4.6914    2.9585 C   0  0  0  0  0  0  0  0  0  0  0  0
    0.9378   -5.4877    4.0362 C   0  0  0  0  0  0  0  0  0  0  0  0
    2.1816   -5.2934    4.6132 C   0  0  0  0  0  0  0  0  0  0  0  0
    3.0134   -4.2900    4.1253 C   0  0  0  0  0  0  0  0  0  0  0  0
    0.8115    1.9950    0.4449 H   0  0  0  0  0  0  0  0  0  0  0  0
   -3.7648   -1.6522   -2.6311 H   0  0  0  0  0  0  0  0  0  0  0  0
   -5.2648    2.1623   -3.4327 H   0  0  0  0  0  0  0  0  0  0  0  0
   -6.4352    2.4702   -5.5458 H   0  0  0  0  0  0  0  0  0  0  0  0
   -8.3619    2.4606   -6.9412 H   0  0  0  0  0  0  0  0  0  0  0  0
   -8.4527    1.5535   -8.4558 H   0  0  0  0  0  0  0  0  0  0  0  0
   -6.8603    2.0146   -7.8420 H   0  0  0  0  0  0  0  0  0  0  0  0
   -7.6311   -1.6675   -5.4984 H   0  0  0  0  0  0  0  0  0  0  0  0
   -6.4604   -1.9779   -3.3560 H   0  0  0  0  0  0  0  0  0  0  0  0
   -6.2392    1.4088   -0.9223 H   0  0  0  0  0  0  0  0  0  0  0  0
   -4.9515    3.2191    0.5742 H   0  0  0  0  0  0  0  0  0  0  0  0
   -5.6113    4.6034    2.4608 H   0  0  0  0  0  0  0  0  0  0  0  0
   -7.2023    5.3170    4.1052 H   0  0  0  0  0  0  0  0  0  0  0  0
   -5.4893    5.4558    4.6633 H   0  0  0  0  0  0  0  0  0  0  0  0
   -6.8152    5.3719    5.8295 H   0  0  0  0  0  0  0  0  0  0  0  0
   -6.2566    1.0703    4.8385 H   0  0  0  0  0  0  0  0  0  0  0  0
   -5.6074   -0.3331    2.9273 H   0  0  0  0  0  0  0  0  0  0  0  0
   -3.3751   -0.6444    1.5318 H   0  0  0  0  0  0  0  0  0  0  0  0
   -3.6205   -3.8352   -1.3299 H   0  0  0  0  0  0  0  0  0  0  0  0
    1.4731   -5.3457    0.2324 H   0  0  0  0  0  0  0  0  0  0  0  0
    0.9320   -7.5016   -0.7555 H   0  0  0  0  0  0  0  0  0  0  0  0
   -1.2970   -7.8927   -1.7749 H   0  0  0  0  0  0  0  0  0  0  0  0
   -2.9598   -6.0857   -1.8155 H   0  0  0  0  0  0  0  0  0  0  0  0
    2.7086    1.0010    2.0875 H   0  0  0  0  0  0  0  0  0  0  0  0
    3.5282    3.2231    3.2382 H   0  0  0  0  0  0  0  0  0  0  0  0
    2.2303    5.2709    3.4172 H   0  0  0  0  0  0  0  0  0  0  0  0
    1.6530    7.5433    3.1337 H   0  0  0  0  0  0  0  0  0  0  0  0
    0.2162    6.4656    2.9340 H   0  0  0  0  0  0  0  0  0  0  0  0
    0.2276    8.0933    2.2449 H   0  0  0  0  0  0  0  0  0  0  0  0
    2.3493    5.7351   -0.8649 H   0  0  0  0  0  0  0  0  0  0  0  0
    3.6495    3.6578   -1.0534 H   0  0  0  0  0  0  0  0  0  0  0  0
    5.9911    2.5285   -0.2238 H   0  0  0  0  0  0  0  0  0  0  0  0
    6.2749    1.0591   -2.6525 H   0  0  0  0  0  0  0  0  0  0  0  0
    8.2652    0.6256   -4.0334 H   0  0  0  0  0  0  0  0  0  0  0  0
   11.2946   -2.2483   -2.5490 H   0  0  0  0  0  0  0  0  0  0  0  0
   12.0083   -0.6671   -2.0429 H   0  0  0  0  0  0  0  0  0  0  0  0
   12.2615   -1.2910   -3.6774 H   0  0  0  0  0  0  0  0  0  0  0  0
   10.1672   -1.3021   -0.6819 H   0  0  0  0  0  0  0  0  0  0  0  0
    8.2001   -0.8661    0.6895 H   0  0  0  0  0  0  0  0  0  0  0  0
    5.4391   -1.7176    0.2183 H   0  0  0  0  0  0  0  0  0  0  0  0
    4.4249   -2.2988    3.1240 H   0  0  0  0  0  0  0  0  0  0  0  0
   -0.4578   -4.8676    2.5597 H   0  0  0  0  0  0  0  0  0  0  0  0
    0.2685   -6.2533    4.4207 H   0  0  0  0  0  0  0  0  0  0  0  0
    2.4993   -5.9082    5.4509 H   0  0  0  0  0  0  0  0  0  0  0  0
    3.9777   -4.1375    4.6073 H   0  0  0  0  0  0  0  0  0  0  0  0
  1  2  2  0  0  0  0
  2  4  1  0  0  0  0
  2  3  1  0  0  0  0
  5 36  1  0  0  0  0
  5  4  1  0  0  0  0
  6  5  2  0  0  0  0
  7  6  1  0  0  0  0
  7 28  2  0  0  0  0
  8  7  1  0  0  0  0
  9  8  2  0  0  0  0
  9 18  1  0  0  0  0
 10  9  1  0  0  0  0
 11 72  1  0  0  0  0
 11 10  2  0  0  0  0
 12 11  1  0  0  0  0
 13 12  2  0  0  0  0
 13 16  1  0  0  0  0
 14 13  1  0  0  0  0
 15 74  1  0  0  0  0
 15 14  1  0  0  0  0
 16 17  2  0  0  0  0
 17 78  1  0  0  0  0
 17 10  1  0  0  0  0
 18 19  2  0  0  0  0
 19 28  1  0  0  0  0
 19 20  1  0  0  0  0
 20 27  1  0  0  0  0
 21 20  2  0  0  0  0
 21 22  1  0  0  0  0
 22 23  2  0  0  0  0
 23 26  1  0  0  0  0
 23 24  1  0  0  0  0
 25 24  1  0  0  0  0
 25 84  1  0  0  0  0
 26 85  1  0  0  0  0
 27 86  1  0  0  0  0
 27 26  2  0  0  0  0
 28 87  1  0  0  0  0
 29 30  2  0  0  0  0
 29  6  1  0  0  0  0
 30 31  1  0  0  0  0
 31 36  2  0  0  0  0
 32 31  1  0  0  0  0
 32 89  1  0  0  0  0
 33 32  2  0  0  0  0
 34 33  1  0  0  0  0
 35 34  2  0  0  0  0
 35 30  1  0  0  0  0
 36 37  1  0  0  0  0
 37 65  1  0  0  0  0
 38 37  2  0  0  0  0
 38 40  1  0  0  0  0
 39  2  1  0  0  0  0
 39 38  1  0  0  0  0
 40 63  2  0  0  0  0
 41 42  1  0  0  0  0
 41 40  1  0  0  0  0
 42 93  1  0  0  0  0
 43 44  1  0  0  0  0
 43 42  2  0  0  0  0
 44 45  2  0  0  0  0
 45 46  1  0  0  0  0
 45 94  1  0  0  0  0
 46 95  1  0  0  0  0
 47 46  2  0  0  0  0
 48 47  1  0  0  0  0
 48 49  1  0  0  0  0
 49 97  1  0  0  0  0
 49 96  1  0  0  0  0
 50 47  1  0  0  0  0
 51 50  2  0  0  0  0
 51 44  1  0  0  0  0
 52 43  1  0  0  0  0
 53 52  2  0  0  0  0
 53 62  1  0  0  0  0
 54 61  1  0  0  0  0
 54 53  1  0  0  0  0
 55 54  2  0  0  0  0
 56 57  2  0  0  0  0
 56 55  1  0  0  0  0
 57 60  1  0  0  0  0
 58 59  1  0  0  0  0
 58 57  1  0  0  0  0
 59104  1  0  0  0  0
 59105  1  0  0  0  0
 60107  1  0  0  0  0
 60 61  2  0  0  0  0
 61108  1  0  0  0  0
 62 41  2  0  0  0  0
 63 64  1  0  0  0  0
 63110  1  0  0  0  0
 64 69  2  0  0  0  0
 65 66  2  0  0  0  0
 65 64  1  0  0  0  0
 66 67  1  0  0  0  0
 67112  1  0  0  0  0
 67 68  2  0  0  0  0
 68113  1  0  0  0  0
 69114  1  0  0  0  0
 69 68  1  0  0  0  0
 70  3  1  0  0  0  0
 71  8  1  0  0  0  0
 73 12  1  0  0  0  0
 75 15  1  0  0  0  0
 76 15  1  0  0  0  0
 77 16  1  0  0  0  0
 79 18  1  0  0  0  0
 80 21  1  0  0  0  0
 81 22  1  0  0  0  0
 82 25  1  0  0  0  0
 83 25  1  0  0  0  0
 88 29  1  0  0  0  0
 90 33  1  0  0  0  0
 91 34  1  0  0  0  0
 92 35  1  0  0  0  0
 98 49  1  0  0  0  0
 99 50  1  0  0  0  0
100 51  1  0  0  0  0
101 52  1  0  0  0  0
102 55  1  0  0  0  0
103 56  1  0  0  0  0
106 59  1  0  0  0  0
109 62  1  0  0  0  0
111 66  1  0  0  0  0
M  END
$$$$
