O=P1(O)OC2=C(C3=CC=C(C4=CC(C(F)(F)F)=CC(C(F)(F)F)=C4)C=C3)C=C5C(C=CC=C5)=C2C6=C(O1)C(C7=CC=C(C8=CC(C(F)(F)F)=CC(C(F)(F)F)=C8)C=C7)=CC9=C6C=CC=C9
 OpenBabel09032010373D

 90 98  0  0  0  0  0  0  0  0999 V2000
    1.2783   -0.5470    0.3174 O   0  0  0  0  0  0  0  0  0  0  0  0
    0.7199    0.2883   -0.7952 P   0  0  2  0  0  0  0  0  0  0  0  0
    0.7357   -0.4403   -2.2311 O   0  0  0  0  0  0  0  0  0  0  0  0
    1.4968    1.6761   -1.0730 O   0  0  0  0  0  0  0  0  0  0  0  0
    0.9570    2.6320   -1.9214 C   0  0  0  0  0  0  0  0  0  0  0  0
    1.7128    2.9634   -3.0768 C   0  0  0  0  0  0  0  0  0  0  0  0
    3.0081    2.3199   -3.3249 C   0  0  0  0  0  0  0  0  0  0  0  0
    4.1246    2.6929   -2.5629 C   0  0  0  0  0  0  0  0  0  0  0  0
    5.1519    1.7775   -2.3475 C   0  0  0  0  0  0  0  0  0  0  0  0
    5.0177    0.4762   -2.8551 C   0  0  0  0  0  0  0  0  0  0  0  0
    5.2456   -0.6422   -1.9275 C   0  0  0  0  0  0  0  0  0  0  0  0
    4.3233   -0.7021   -0.8662 C   0  0  0  0  0  0  0  0  0  0  0  0
    4.1829   -1.8073   -0.0383 C   0  0  0  0  0  0  0  0  0  0  0  0
    3.0096   -1.8041    0.9182 C   0  0  0  0  0  0  0  0  0  0  0  0
    2.9809   -2.9053    1.7208 F   0  0  0  0  0  0  0  0  0  0  0  0
    1.8099   -1.7755    0.2764 F   0  0  0  0  0  0  0  0  0  0  0  0
    3.0175   -0.7311    1.7558 F   0  0  0  0  0  0  0  0  0  0  0  0
    5.0832   -2.8606   -0.2097 C   0  0  0  0  0  0  0  0  0  0  0  0
    6.0788   -2.8055   -1.2168 C   0  0  0  0  0  0  0  0  0  0  0  0
    7.0301   -3.9653   -1.4092 C   0  0  0  0  0  0  0  0  0  0  0  0
    8.2538   -3.5812   -1.8679 F   0  0  0  0  0  0  0  0  0  0  0  0
    6.5596   -4.8720   -2.3086 F   0  0  0  0  0  0  0  0  0  0  0  0
    7.2638   -4.6599   -0.2616 F   0  0  0  0  0  0  0  0  0  0  0  0
    6.1320   -1.6991   -2.0949 C   0  0  0  0  0  0  0  0  0  0  0  0
    4.0956    0.2421   -3.8894 C   0  0  0  0  0  0  0  0  0  0  0  0
    3.0757    1.1644   -4.1125 C   0  0  0  0  0  0  0  0  0  0  0  0
    1.2002    3.9006   -3.9658 C   0  0  0  0  0  0  0  0  0  0  0  0
   -0.0431    4.4933   -3.7378 C   0  0  0  0  0  0  0  0  0  0  0  0
   -0.7840    4.1867   -2.5610 C   0  0  0  0  0  0  0  0  0  0  0  0
   -2.0689    4.7778   -2.4609 C   0  0  0  0  0  0  0  0  0  0  0  0
   -2.5697    5.6579   -3.4239 C   0  0  0  0  0  0  0  0  0  0  0  0
   -1.8062    5.9692   -4.5370 C   0  0  0  0  0  0  0  0  0  0  0  0
   -0.5527    5.3864   -4.6940 C   0  0  0  0  0  0  0  0  0  0  0  0
   -0.2502    3.2815   -1.5714 C   0  0  0  0  0  0  0  0  0  0  0  0
   -0.8641    3.0512   -0.2764 C   0  0  0  0  0  0  0  0  0  0  0  0
   -1.1746    1.7347    0.1504 C   0  0  0  0  0  0  0  0  0  0  0  0
   -0.8397    0.6762   -0.6615 O   0  0  0  0  0  0  0  0  0  0  0  0
   -1.8992    1.4422    1.3191 C   0  0  0  0  0  0  0  0  0  0  0  0
   -2.2828    0.0754    1.6981 C   0  0  0  0  0  0  0  0  0  0  0  0
   -3.5925   -0.3816    1.4973 C   0  0  0  0  0  0  0  0  0  0  0  0
   -3.9706   -1.6734    1.8831 C   0  0  0  0  0  0  0  0  0  0  0  0
   -3.0520   -2.5490    2.4823 C   0  0  0  0  0  0  0  0  0  0  0  0
   -3.4498   -3.9066    2.8925 C   0  0  0  0  0  0  0  0  0  0  0  0
   -2.7177   -5.0314    2.4789 C   0  0  0  0  0  0  0  0  0  0  0  0
   -3.0796   -6.3321    2.8710 C   0  0  0  0  0  0  0  0  0  0  0  0
   -2.2772   -7.5171    2.3891 C   0  0  0  0  0  0  0  0  0  0  0  0
   -2.6312   -7.9034    1.1335 F   0  0  0  0  0  0  0  0  0  0  0  0
   -2.4233   -8.6182    3.1770 F   0  0  0  0  0  0  0  0  0  0  0  0
   -0.9392   -7.2675    2.3437 F   0  0  0  0  0  0  0  0  0  0  0  0
   -4.2110   -6.5073    3.6820 C   0  0  0  0  0  0  0  0  0  0  0  0
   -4.9690   -5.4056    4.1057 C   0  0  0  0  0  0  0  0  0  0  0  0
   -6.1700   -5.5890    5.0016 C   0  0  0  0  0  0  0  0  0  0  0  0
   -6.7557   -6.8116    4.8674 F   0  0  0  0  0  0  0  0  0  0  0  0
   -5.8549   -5.4672    6.3199 F   0  0  0  0  0  0  0  0  0  0  0  0
   -7.1539   -4.6777    4.7641 F   0  0  0  0  0  0  0  0  0  0  0  0
   -4.5721   -4.1159    3.7115 C   0  0  0  0  0  0  0  0  0  0  0  0
   -1.7417   -2.0871    2.6789 C   0  0  0  0  0  0  0  0  0  0  0  0
   -1.3638   -0.7944    2.2964 C   0  0  0  0  0  0  0  0  0  0  0  0
   -2.2802    2.5078    2.1361 C   0  0  0  0  0  0  0  0  0  0  0  0
   -1.9340    3.8254    1.8265 C   0  0  0  0  0  0  0  0  0  0  0  0
   -1.2110    4.1126    0.6380 C   0  0  0  0  0  0  0  0  0  0  0  0
   -0.8258    5.4662    0.4541 C   0  0  0  0  0  0  0  0  0  0  0  0
   -1.1856    6.4803    1.3463 C   0  0  0  0  0  0  0  0  0  0  0  0
   -1.9322    6.1747    2.4722 C   0  0  0  0  0  0  0  0  0  0  0  0
   -2.2972    4.8537    2.7133 C   0  0  0  0  0  0  0  0  0  0  0  0
    0.3120    0.1020   -2.9170 H   0  0  0  0  0  0  0  0  0  0  0  0
    4.1088    3.6115   -1.9789 H   0  0  0  0  0  0  0  0  0  0  0  0
    5.8819    1.9904   -1.5680 H   0  0  0  0  0  0  0  0  0  0  0  0
    3.6223    0.1216   -0.7325 H   0  0  0  0  0  0  0  0  0  0  0  0
    5.0010   -3.7408    0.4284 H   0  0  0  0  0  0  0  0  0  0  0  0
    6.8452   -1.6863   -2.9173 H   0  0  0  0  0  0  0  0  0  0  0  0
    3.9963   -0.7532   -4.3208 H   0  0  0  0  0  0  0  0  0  0  0  0
    2.2454    0.8810   -4.7551 H   0  0  0  0  0  0  0  0  0  0  0  0
    1.7726    4.1546   -4.8573 H   0  0  0  0  0  0  0  0  0  0  0  0
   -2.7199    4.5475   -1.6190 H   0  0  0  0  0  0  0  0  0  0  0  0
   -3.5584    6.0921   -3.2988 H   0  0  0  0  0  0  0  0  0  0  0  0
   -2.1886    6.6520   -5.2904 H   0  0  0  0  0  0  0  0  0  0  0  0
    0.0230    5.6296   -5.5856 H   0  0  0  0  0  0  0  0  0  0  0  0
   -4.3312    0.2681    1.0321 H   0  0  0  0  0  0  0  0  0  0  0  0
   -4.9939   -1.9943    1.6977 H   0  0  0  0  0  0  0  0  0  0  0  0
   -1.8494   -4.8974    1.8315 H   0  0  0  0  0  0  0  0  0  0  0  0
   -4.5054   -7.5133    3.9869 H   0  0  0  0  0  0  0  0  0  0  0  0
   -5.1472   -3.2565    4.0595 H   0  0  0  0  0  0  0  0  0  0  0  0
   -0.9946   -2.7273    3.1448 H   0  0  0  0  0  0  0  0  0  0  0  0
   -0.3375   -0.4743    2.4716 H   0  0  0  0  0  0  0  0  0  0  0  0
   -2.8374    2.2948    3.0484 H   0  0  0  0  0  0  0  0  0  0  0  0
   -0.2143    5.7567   -0.3984 H   0  0  0  0  0  0  0  0  0  0  0  0
   -0.8730    7.5041    1.1579 H   0  0  0  0  0  0  0  0  0  0  0  0
   -2.2148    6.9566    3.1719 H   0  0  0  0  0  0  0  0  0  0  0  0
   -2.8616    4.6288    3.6168 H   0  0  0  0  0  0  0  0  0  0  0  0
  2  3  1  6  0  0  0
  2 37  1  0  0  0  0
  2  1  1  0  0  0  0
  4  2  1  0  0  0  0
  5 34  1  0  0  0  0
  5  4  1  0  0  0  0
  6  5  2  0  0  0  0
  7  6  1  0  0  0  0
  7  8  2  0  0  0  0
  8  9  1  0  0  0  0
  8 67  1  0  0  0  0
  9 68  1  0  0  0  0
 10  9  2  0  0  0  0
 10 11  1  0  0  0  0
 11 12  1  0  0  0  0
 12 69  1  0  0  0  0
 12 13  2  0  0  0  0
 13 14  1  0  0  0  0
 14 15  1  0  0  0  0
 14 17  1  0  0  0  0
 16  1  1  0  0  0  0
 18 13  1  0  0  0  0
 18 70  1  0  0  0  0
 19 18  2  0  0  0  0
 20 19  1  0  0  0  0
 20 23  1  0  0  0  0
 21 20  1  0  0  0  0
 22 20  1  0  0  0  0
 24 11  2  0  0  0  0
 24 19  1  0  0  0  0
 25 10  1  0  0  0  0
 26 25  2  0  0  0  0
 26  7  1  0  0  0  0
 27 28  2  0  0  0  0
 27  6  1  0  0  0  0
 28 29  1  0  0  0  0
 29 30  1  0  0  0  0
 29 34  2  0  0  0  0
 30 75  1  0  0  0  0
 31 76  1  0  0  0  0
 31 30  2  0  0  0  0
 32 31  1  0  0  0  0
 33 32  2  0  0  0  0
 33 28  1  0  0  0  0
 34 35  1  0  0  0  0
 35 36  2  0  0  0  0
 35 61  1  0  0  0  0
 36 38  1  0  0  0  0
 37 36  1  0  0  0  0
 38 39  1  0  0  0  0
 38 59  2  0  0  0  0
 39 58  1  0  0  0  0
 40 39  2  0  0  0  0
 40 41  1  0  0  0  0
 41 42  2  0  0  0  0
 42 57  1  0  0  0  0
 42 43  1  0  0  0  0
 43 56  2  0  0  0  0
 44 45  2  0  0  0  0
 44 43  1  0  0  0  0
 45 50  1  0  0  0  0
 46 45  1  0  0  0  0
 46 48  1  0  0  0  0
 47 46  1  0  0  0  0
 49 46  1  0  0  0  0
 50 82  1  0  0  0  0
 50 51  2  0  0  0  0
 51 52  1  0  0  0  0
 52 54  1  0  0  0  0
 53 52  1  0  0  0  0
 55 52  1  0  0  0  0
 56 83  1  0  0  0  0
 56 51  1  0  0  0  0
 57 84  1  0  0  0  0
 58 85  1  0  0  0  0
 58 57  2  0  0  0  0
 59 86  1  0  0  0  0
 60 59  1  0  0  0  0
 60 65  2  0  0  0  0
 61 60  1  0  0  0  0
 62 61  2  0  0  0  0
 62 63  1  0  0  0  0
 63 64  2  0  0  0  0
 64 65  1  0  0  0  0
 64 89  1  0  0  0  0
 65 90  1  0  0  0  0
 66  3  1  0  0  0  0
 71 24  1  0  0  0  0
 72 25  1  0  0  0  0
 73 26  1  0  0  0  0
 74 27  1  0  0  0  0
 77 32  1  0  0  0  0
 78 33  1  0  0  0  0
 79 40  1  0  0  0  0
 80 41  1  0  0  0  0
 81 44  1  0  0  0  0
 87 62  1  0  0  0  0
 88 63  1  0  0  0  0
M  RAD  1  14   2
M  END
$$$$
