O=P1(O)OC2=C(C3=C(OC)C=CC=C3OC)C=C4C(C=CC=C4)=C2C5=C(O1)[C@@]([C@@]6=C(OC)C=CC=C6OC)=CC7=C5C=CC=C7
 OpenBabel09032010373D

 74 80  0  0  0  0  0  0  0  0999 V2000
   -0.3368    2.5220   -1.8070 O   0  0  0  0  0  0  0  0  0  0  0  0
    0.1642    1.7355   -0.6356 P   0  0  0  0  0  0  0  0  0  0  0  0
    1.0456    2.6306    0.3715 O   0  0  0  0  0  0  0  0  0  0  0  0
    1.1668    0.5383   -1.0352 O   0  0  0  0  0  0  0  0  0  0  0  0
    1.5242   -0.4018   -0.0931 C   0  0  0  0  0  0  0  0  0  0  0  0
    2.8877   -0.4469    0.2469 C   0  0  0  0  0  0  0  0  0  0  0  0
    3.8706    0.4832   -0.3419 C   0  0  0  0  0  0  0  0  0  0  0  0
    4.2286    1.6774    0.3257 C   0  0  0  0  0  0  0  0  0  0  0  0
    3.5818    1.9161    1.5178 O   0  0  0  0  0  0  0  0  0  0  0  0
    4.0311    3.0260    2.2889 C   0  0  0  0  0  0  0  0  0  0  0  0
    5.1633    2.5471   -0.2500 C   0  0  0  0  0  0  0  0  0  0  0  0
    5.7579    2.2388   -1.4753 C   0  0  0  0  0  0  0  0  0  0  0  0
    5.4129    1.0689   -2.1442 C   0  0  0  0  0  0  0  0  0  0  0  0
    4.4620    0.2099   -1.5908 C   0  0  0  0  0  0  0  0  0  0  0  0
    4.1449   -0.9568   -2.2435 O   0  0  0  0  0  0  0  0  0  0  0  0
    3.4107   -0.6898   -3.4403 C   0  0  0  0  0  0  0  0  0  0  0  0
    3.3057   -1.3958    1.1801 C   0  0  0  0  0  0  0  0  0  0  0  0
    2.3955   -2.2560    1.7972 C   0  0  0  0  0  0  0  0  0  0  0  0
    1.0187   -2.2051    1.4500 C   0  0  0  0  0  0  0  0  0  0  0  0
    0.1557   -3.0436    2.2014 C   0  0  0  0  0  0  0  0  0  0  0  0
    0.6244   -3.9253    3.1797 C   0  0  0  0  0  0  0  0  0  0  0  0
    1.9797   -3.9886    3.4586 C   0  0  0  0  0  0  0  0  0  0  0  0
    2.8582   -3.1529    2.7756 C   0  0  0  0  0  0  0  0  0  0  0  0
    0.5578   -1.3000    0.4238 C   0  0  0  0  0  0  0  0  0  0  0  0
   -0.7995   -1.2889   -0.0823 C   0  0  0  0  0  0  0  0  0  0  0  0
   -1.5446   -0.0841   -0.0909 C   0  0  0  0  0  0  0  0  0  0  0  0
   -0.9396    1.0790    0.3332 O   0  0  0  0  0  0  0  0  0  0  0  0
   -2.9023   -0.0108   -0.4451 C   0  0  0  0  0  0  0  0  0  0  0  0
   -3.6585    1.2579   -0.4138 C   0  0  0  0  0  0  0  0  0  0  0  0
   -3.8534    1.9990   -1.6021 C   0  0  0  0  0  0  0  0  0  0  0  0
   -3.3537    1.4562   -2.7621 O   0  0  0  0  0  0  0  0  0  0  0  0
   -2.9229    2.3925   -3.7449 C   0  0  0  0  0  0  0  0  0  0  0  0
   -4.5728    3.1968   -1.5775 C   0  0  0  0  0  0  0  0  0  0  0  0
   -5.0848    3.6798   -0.3757 C   0  0  0  0  0  0  0  0  0  0  0  0
   -4.8946    2.9652    0.8070 C   0  0  0  0  0  0  0  0  0  0  0  0
   -4.1889    1.7568    0.7995 C   0  0  0  0  0  0  0  0  0  0  0  0
   -3.9851    0.9789    1.9143 O   0  0  0  0  0  0  0  0  0  0  0  0
   -4.3560    1.5233    3.1728 C   0  0  0  0  0  0  0  0  0  0  0  0
   -3.5410   -1.1847   -0.8489 C   0  0  0  0  0  0  0  0  0  0  0  0
   -2.8518   -2.3960   -0.9376 C   0  0  0  0  0  0  0  0  0  0  0  0
   -1.4782   -2.4613   -0.5825 C   0  0  0  0  0  0  0  0  0  0  0  0
   -0.8368   -3.7077   -0.8017 C   0  0  0  0  0  0  0  0  0  0  0  0
   -1.5186   -4.8344   -1.2710 C   0  0  0  0  0  0  0  0  0  0  0  0
   -2.8710   -4.7513   -1.5598 C   0  0  0  0  0  0  0  0  0  0  0  0
   -3.5304   -3.5362   -1.4013 C   0  0  0  0  0  0  0  0  0  0  0  0
    1.5778    2.0906    0.9876 H   0  0  0  0  0  0  0  0  0  0  0  0
    3.4774    3.0201    3.2327 H   0  0  0  0  0  0  0  0  0  0  0  0
    5.0964    2.9398    2.5271 H   0  0  0  0  0  0  0  0  0  0  0  0
    3.8104    3.9701    1.7806 H   0  0  0  0  0  0  0  0  0  0  0  0
    5.4465    3.4799    0.2260 H   0  0  0  0  0  0  0  0  0  0  0  0
    6.4894    2.9158   -1.9096 H   0  0  0  0  0  0  0  0  0  0  0  0
    5.8879    0.8260   -3.0900 H   0  0  0  0  0  0  0  0  0  0  0  0
    2.6467    0.0821   -3.2961 H   0  0  0  0  0  0  0  0  0  0  0  0
    4.0911   -0.4026   -4.2484 H   0  0  0  0  0  0  0  0  0  0  0  0
    2.9062   -1.6147   -3.7356 H   0  0  0  0  0  0  0  0  0  0  0  0
    4.3615   -1.4386    1.4444 H   0  0  0  0  0  0  0  0  0  0  0  0
   -0.9208   -3.0124    2.0404 H   0  0  0  0  0  0  0  0  0  0  0  0
   -0.0774   -4.5544    3.7207 H   0  0  0  0  0  0  0  0  0  0  0  0
    2.3528   -4.6721    4.2162 H   0  0  0  0  0  0  0  0  0  0  0  0
    3.9169   -3.1982    3.0249 H   0  0  0  0  0  0  0  0  0  0  0  0
   -2.4068    3.2534   -3.3073 H   0  0  0  0  0  0  0  0  0  0  0  0
   -3.7748    2.7230   -4.3474 H   0  0  0  0  0  0  0  0  0  0  0  0
   -2.2205    1.8806   -4.4097 H   0  0  0  0  0  0  0  0  0  0  0  0
   -4.7565    3.7612   -2.4858 H   0  0  0  0  0  0  0  0  0  0  0  0
   -5.6420    4.6131   -0.3618 H   0  0  0  0  0  0  0  0  0  0  0  0
   -5.3193    3.3730    1.7176 H   0  0  0  0  0  0  0  0  0  0  0  0
   -4.0467    0.8147    3.9472 H   0  0  0  0  0  0  0  0  0  0  0  0
   -5.4421    1.6402    3.2450 H   0  0  0  0  0  0  0  0  0  0  0  0
   -3.8407    2.4704    3.3646 H   0  0  0  0  0  0  0  0  0  0  0  0
   -4.5921   -1.1343   -1.1294 H   0  0  0  0  0  0  0  0  0  0  0  0
    0.2306   -3.8179   -0.6184 H   0  0  0  0  0  0  0  0  0  0  0  0
   -0.9833   -5.7691   -1.4146 H   0  0  0  0  0  0  0  0  0  0  0  0
   -3.4088   -5.6209   -1.9268 H   0  0  0  0  0  0  0  0  0  0  0  0
   -4.5863   -3.4801   -1.6601 H   0  0  0  0  0  0  0  0  0  0  0  0
  1  2  2  0  0  0  0
  2 27  1  0  0  0  0
  2  3  1  0  0  0  0
  3 46  1  0  0  0  0
  4  2  1  0  0  0  0
  4  5  1  0  0  0  0
  5  6  2  0  0  0  0
  5 24  1  0  0  0  0
  6 17  1  0  0  0  0
  7  6  1  0  0  0  0
  7  8  2  0  0  0  0
  8  9  1  0  0  0  0
  9 10  1  0  0  0  0
 10 48  1  0  0  0  0
 10 47  1  0  0  0  0
 11 50  1  0  0  0  0
 11  8  1  0  0  0  0
 12 11  2  0  0  0  0
 13 14  2  0  0  0  0
 13 12  1  0  0  0  0
 14  7  1  0  0  0  0
 15 14  1  0  0  0  0
 16 53  1  0  0  0  0
 16 15  1  0  0  0  0
 17 56  1  0  0  0  0
 17 18  2  0  0  0  0
 18 23  1  0  0  0  0
 19 18  1  0  0  0  0
 19 20  1  0  0  0  0
 20 21  2  0  0  0  0
 21 22  1  0  0  0  0
 21 58  1  0  0  0  0
 22 59  1  0  0  0  0
 23 60  1  0  0  0  0
 23 22  2  0  0  0  0
 24 19  2  0  0  0  0
 25 24  1  0  0  0  0
 26 25  1  0  0  0  0
 26 27  1  0  0  0  0
 28 29  1  0  0  0  0
 28 26  2  0  0  0  0
 29 36  2  0  0  0  0
 30 33  2  0  0  0  0
 30 29  1  0  0  0  0
 31 30  1  0  0  0  0
 32 61  1  0  0  0  0
 32 31  1  0  0  0  0
 33 34  1  0  0  0  0
 34 65  1  0  0  0  0
 34 35  2  0  0  0  0
 35 66  1  0  0  0  0
 36 35  1  0  0  0  0
 36 37  1  0  0  0  0
 37 38  1  0  0  0  0
 38 68  1  0  0  0  0
 38 69  1  0  0  0  0
 38 67  1  0  0  0  0
 39 28  1  0  0  0  0
 40 39  2  0  0  0  0
 40 41  1  0  0  0  0
 41 25  2  0  0  0  0
 42 71  1  0  0  0  0
 42 41  1  0  0  0  0
 43 42  2  0  0  0  0
 44 45  2  0  0  0  0
 44 43  1  0  0  0  0
 45 40  1  0  0  0  0
 49 10  1  0  0  0  0
 51 12  1  0  0  0  0
 52 13  1  0  0  0  0
 54 16  1  0  0  0  0
 55 16  1  0  0  0  0
 57 20  1  0  0  0  0
 62 32  1  0  0  0  0
 63 32  1  0  0  0  0
 64 33  1  0  0  0  0
 70 39  1  0  0  0  0
 72 43  1  0  0  0  0
 73 44  1  0  0  0  0
 74 45  1  0  0  0  0
M  END
$$$$
