O=P1(O)OC2=C(C3=CC=C(C)C=C3)C=C4C(C=CC=C4)=C2C5=C(O1)C(C6=CC=C(C)C=C6)=CC7=C5C=CC=C7
 OpenBabel09032010373D

 64 70  0  0  0  0  0  0  0  0999 V2000
    0.6323   -2.6707   -1.3622 O   0  0  0  0  0  0  0  0  0  0  0  0
    0.0254   -1.7432   -0.3564 P   0  0  0  0  0  0  0  0  0  0  0  0
   -0.7992   -2.5454    0.7687 O   0  0  0  0  0  0  0  0  0  0  0  0
   -1.0648   -0.7211   -0.9567 O   0  0  0  0  0  0  0  0  0  0  0  0
   -1.5422    0.2907   -0.1530 C   0  0  0  0  0  0  0  0  0  0  0  0
   -2.8938    0.2060    0.2270 C   0  0  0  0  0  0  0  0  0  0  0  0
   -3.7441   -0.9349   -0.1487 C   0  0  0  0  0  0  0  0  0  0  0  0
   -4.2244   -1.8193    0.8293 C   0  0  0  0  0  0  0  0  0  0  0  0
   -5.0191   -2.9148    0.4803 C   0  0  0  0  0  0  0  0  0  0  0  0
   -5.3437   -3.1562   -0.8582 C   0  0  0  0  0  0  0  0  0  0  0  0
   -6.2254   -4.3108   -1.2316 C   0  0  0  0  0  0  0  0  0  0  0  0
   -4.8825   -2.2709   -1.8378 C   0  0  0  0  0  0  0  0  0  0  0  0
   -4.0878   -1.1757   -1.4866 C   0  0  0  0  0  0  0  0  0  0  0  0
   -3.4172    1.2397    1.0046 C   0  0  0  0  0  0  0  0  0  0  0  0
   -2.6219    2.3077    1.4300 C   0  0  0  0  0  0  0  0  0  0  0  0
   -1.2529    2.3742    1.0541 C   0  0  0  0  0  0  0  0  0  0  0  0
   -0.5007    3.4337    1.6234 C   0  0  0  0  0  0  0  0  0  0  0  0
   -1.0728    4.4058    2.4488 C   0  0  0  0  0  0  0  0  0  0  0  0
   -2.4224    4.3431    2.7539 C   0  0  0  0  0  0  0  0  0  0  0  0
   -3.1893    3.2954    2.2531 C   0  0  0  0  0  0  0  0  0  0  0  0
   -0.6871    1.3673    0.1886 C   0  0  0  0  0  0  0  0  0  0  0  0
    0.6711    1.4069   -0.3170 C   0  0  0  0  0  0  0  0  0  0  0  0
    1.5360    0.3021   -0.1104 C   0  0  0  0  0  0  0  0  0  0  0  0
    1.0436   -0.8324    0.4980 O   0  0  0  0  0  0  0  0  0  0  0  0
    2.9047    0.3134   -0.4260 C   0  0  0  0  0  0  0  0  0  0  0  0
    3.7916   -0.8155   -0.1201 C   0  0  0  0  0  0  0  0  0  0  0  0
    3.8913   -1.9113   -0.9872 C   0  0  0  0  0  0  0  0  0  0  0  0
    4.7399   -2.9821   -0.6920 C   0  0  0  0  0  0  0  0  0  0  0  0
    5.5180   -2.9718    0.4703 C   0  0  0  0  0  0  0  0  0  0  0  0
    6.3996   -4.1379    0.8047 C   0  0  0  0  0  0  0  0  0  0  0  0
    5.4143   -1.8860    1.3458 C   0  0  0  0  0  0  0  0  0  0  0  0
    4.5637   -0.8172    1.0504 C   0  0  0  0  0  0  0  0  0  0  0  0
    3.4281    1.4548   -1.0348 C   0  0  0  0  0  0  0  0  0  0  0  0
    2.6171    2.5479   -1.3525 C   0  0  0  0  0  0  0  0  0  0  0  0
    1.2363    2.5331   -1.0185 C   0  0  0  0  0  0  0  0  0  0  0  0
    0.4732    3.6447   -1.4584 C   0  0  0  0  0  0  0  0  0  0  0  0
    1.0438    4.7317   -2.1263 C   0  0  0  0  0  0  0  0  0  0  0  0
    2.4025    4.7385   -2.3964 C   0  0  0  0  0  0  0  0  0  0  0  0
    3.1820    3.6495   -2.0172 C   0  0  0  0  0  0  0  0  0  0  0  0
   -1.3373   -3.2444    0.3544 H   0  0  0  0  0  0  0  0  0  0  0  0
   -3.9706   -1.6631    1.8765 H   0  0  0  0  0  0  0  0  0  0  0  0
   -5.3809   -3.5775    1.2631 H   0  0  0  0  0  0  0  0  0  0  0  0
   -7.2750   -4.0019   -1.2111 H   0  0  0  0  0  0  0  0  0  0  0  0
   -6.0886   -5.1470   -0.5378 H   0  0  0  0  0  0  0  0  0  0  0  0
   -5.9836   -4.6785   -2.2343 H   0  0  0  0  0  0  0  0  0  0  0  0
   -5.1375   -2.4262   -2.8840 H   0  0  0  0  0  0  0  0  0  0  0  0
   -3.7344   -0.5055   -2.2685 H   0  0  0  0  0  0  0  0  0  0  0  0
   -4.4650    1.1946    1.3007 H   0  0  0  0  0  0  0  0  0  0  0  0
    0.5694    3.5118    1.4401 H   0  0  0  0  0  0  0  0  0  0  0  0
   -0.4550    5.2028    2.8539 H   0  0  0  0  0  0  0  0  0  0  0  0
   -2.8754    5.0938    3.3955 H   0  0  0  0  0  0  0  0  0  0  0  0
   -4.2418    3.2476    2.5270 H   0  0  0  0  0  0  0  0  0  0  0  0
    3.2953   -1.9460   -1.8976 H   0  0  0  0  0  0  0  0  0  0  0  0
    4.7820   -3.8259   -1.3770 H   0  0  0  0  0  0  0  0  0  0  0  0
    5.8386   -4.8770    1.3848 H   0  0  0  0  0  0  0  0  0  0  0  0
    7.2689   -3.8158    1.3876 H   0  0  0  0  0  0  0  0  0  0  0  0
    6.7781   -4.6150   -0.1054 H   0  0  0  0  0  0  0  0  0  0  0  0
    5.9913   -1.8644    2.2671 H   0  0  0  0  0  0  0  0  0  0  0  0
    4.4966    0.0155    1.7474 H   0  0  0  0  0  0  0  0  0  0  0  0
    4.4882    1.4734   -1.2868 H   0  0  0  0  0  0  0  0  0  0  0  0
   -0.6027    3.6744   -1.2948 H   0  0  0  0  0  0  0  0  0  0  0  0
    0.4186    5.5644   -2.4372 H   0  0  0  0  0  0  0  0  0  0  0  0
    2.8545    5.5789   -2.9159 H   0  0  0  0  0  0  0  0  0  0  0  0
    4.2431    3.6619   -2.2601 H   0  0  0  0  0  0  0  0  0  0  0  0
  1  2  2  0  0  0  0
  2 24  1  0  0  0  0
  2  3  1  0  0  0  0
  4  2  1  0  0  0  0
  4  5  1  0  0  0  0
  5 21  2  0  0  0  0
  5  6  1  0  0  0  0
  6 14  2  0  0  0  0
  7  6  1  0  0  0  0
  7  8  2  0  0  0  0
  8 41  1  0  0  0  0
  9  8  1  0  0  0  0
  9 42  1  0  0  0  0
 10  9  2  0  0  0  0
 11 43  1  0  0  0  0
 11 10  1  0  0  0  0
 11 44  1  0  0  0  0
 12 13  2  0  0  0  0
 12 10  1  0  0  0  0
 13  7  1  0  0  0  0
 14 48  1  0  0  0  0
 14 15  1  0  0  0  0
 15 20  1  0  0  0  0
 16 15  2  0  0  0  0
 16 17  1  0  0  0  0
 17 18  2  0  0  0  0
 18 19  1  0  0  0  0
 18 50  1  0  0  0  0
 19 51  1  0  0  0  0
 20 52  1  0  0  0  0
 20 19  2  0  0  0  0
 21 16  1  0  0  0  0
 22 23  2  0  0  0  0
 22 21  1  0  0  0  0
 23 24  1  0  0  0  0
 25 26  1  0  0  0  0
 25 23  1  0  0  0  0
 26 32  2  0  0  0  0
 27 28  2  0  0  0  0
 27 26  1  0  0  0  0
 28 29  1  0  0  0  0
 29 30  1  0  0  0  0
 29 31  2  0  0  0  0
 30 55  1  0  0  0  0
 30 56  1  0  0  0  0
 31 58  1  0  0  0  0
 32 31  1  0  0  0  0
 32 59  1  0  0  0  0
 33 25  2  0  0  0  0
 34 33  1  0  0  0  0
 34 35  1  0  0  0  0
 35 22  1  0  0  0  0
 36 61  1  0  0  0  0
 36 35  2  0  0  0  0
 37 36  1  0  0  0  0
 38 37  2  0  0  0  0
 38 39  1  0  0  0  0
 39 34  2  0  0  0  0
 40  3  1  0  0  0  0
 45 11  1  0  0  0  0
 46 12  1  0  0  0  0
 47 13  1  0  0  0  0
 49 17  1  0  0  0  0
 53 27  1  0  0  0  0
 54 28  1  0  0  0  0
 57 30  1  0  0  0  0
 60 33  1  0  0  0  0
 62 37  1  0  0  0  0
 63 38  1  0  0  0  0
 64 39  1  0  0  0  0
M  END
$$$$
