O=P1(O)OC2=C([Si](C3=CC=CC=C3)(C4=CC=CC=C4)C5=CC=CC=C5)C=C6C(C=CC=C6)=C2C7=C(O1)C([Si](C8=CC=CC=C8)(C9=CC=CC=C9)C%10=CC=CC=C%10)=CC%11=C7C=CC=C%11
 OpenBabel09032010383D

104114  0  0  0  0  0  0  0  0999 V2000
    0.5978    1.7696    2.0024 O   0  0  0  0  0  0  0  0  0  0  0  0
   -0.0130    1.2013    0.7618 P   0  0  0  0  0  0  0  0  0  0  0  0
   -0.9443    2.2830    0.0215 O   0  0  0  0  0  0  0  0  0  0  0  0
    1.0031    0.7579   -0.4099 O   0  0  0  0  0  0  0  0  0  0  0  0
    1.6511   -0.4473   -0.2961 C   0  0  0  0  0  0  0  0  0  0  0  0
    3.0636   -0.4372   -0.2474 C   0  0  0  0  0  0  0  0  0  0  0  0
    4.1079    1.0966   -0.5233 Si  0  0  0  0  0  0  0  0  0  0  0  0
    3.7159    2.3652    0.7735 C   0  0  0  0  0  0  0  0  0  0  0  0
    3.8299    2.0519    2.1440 C   0  0  0  0  0  0  0  0  0  0  0  0
    3.5567    3.0020    3.1329 C   0  0  0  0  0  0  0  0  0  0  0  0
    3.1525    4.2843    2.7771 C   0  0  0  0  0  0  0  0  0  0  0  0
    3.0153    4.6159    1.4334 C   0  0  0  0  0  0  0  0  0  0  0  0
    3.2870    3.6659    0.4434 C   0  0  0  0  0  0  0  0  0  0  0  0
    3.8831    1.8011   -2.2479 C   0  0  0  0  0  0  0  0  0  0  0  0
    4.7509    2.8118   -2.7179 C   0  0  0  0  0  0  0  0  0  0  0  0
    4.6155    3.3515   -4.0004 C   0  0  0  0  0  0  0  0  0  0  0  0
    3.6088    2.8956   -4.8442 C   0  0  0  0  0  0  0  0  0  0  0  0
    2.7445    1.8966   -4.4089 C   0  0  0  0  0  0  0  0  0  0  0  0
    2.8854    1.3497   -3.1297 C   0  0  0  0  0  0  0  0  0  0  0  0
    5.9403    0.6455   -0.4626 C   0  0  0  0  0  0  0  0  0  0  0  0
    6.8074    1.1217    0.5380 C   0  0  0  0  0  0  0  0  0  0  0  0
    8.1610    0.7693    0.5501 C   0  0  0  0  0  0  0  0  0  0  0  0
    8.6790   -0.0610   -0.4391 C   0  0  0  0  0  0  0  0  0  0  0  0
    7.8472   -0.5336   -1.4484 C   0  0  0  0  0  0  0  0  0  0  0  0
    6.4956   -0.1803   -1.4649 C   0  0  0  0  0  0  0  0  0  0  0  0
    3.6861   -1.6746   -0.0167 C   0  0  0  0  0  0  0  0  0  0  0  0
    2.9635   -2.8662    0.1094 C   0  0  0  0  0  0  0  0  0  0  0  0
    1.5562   -2.8619   -0.0444 C   0  0  0  0  0  0  0  0  0  0  0  0
    0.8993   -4.1066    0.1408 C   0  0  0  0  0  0  0  0  0  0  0  0
    1.5913   -5.2898    0.4126 C   0  0  0  0  0  0  0  0  0  0  0  0
    2.9717   -5.2682    0.5248 C   0  0  0  0  0  0  0  0  0  0  0  0
    3.6518   -4.0625    0.3784 C   0  0  0  0  0  0  0  0  0  0  0  0
    0.8662   -1.6332   -0.3303 C   0  0  0  0  0  0  0  0  0  0  0  0
   -0.5374   -1.5925   -0.7024 C   0  0  0  0  0  0  0  0  0  0  0  0
   -1.4812   -0.8151    0.0305 C   0  0  0  0  0  0  0  0  0  0  0  0
   -1.0124   -0.0297    1.0492 O   0  0  0  0  0  0  0  0  0  0  0  0
   -2.8806   -0.9029   -0.1404 C   0  0  0  0  0  0  0  0  0  0  0  0
   -4.1738   -0.0581    0.9365 Si  0  0  0  0  0  0  0  0  0  0  0  0
   -5.7181    0.2169   -0.1123 C   0  0  0  0  0  0  0  0  0  0  0  0
   -7.0028   -0.1288    0.3484 C   0  0  0  0  0  0  0  0  0  0  0  0
   -8.1361    0.0697   -0.4472 C   0  0  0  0  0  0  0  0  0  0  0  0
   -8.0133    0.6160   -1.7206 C   0  0  0  0  0  0  0  0  0  0  0  0
   -6.7564    0.9671   -2.2016 C   0  0  0  0  0  0  0  0  0  0  0  0
   -5.6217    0.7720   -1.4077 C   0  0  0  0  0  0  0  0  0  0  0  0
   -4.6179   -1.2052    2.3564 C   0  0  0  0  0  0  0  0  0  0  0  0
   -5.2867   -0.7129    3.4982 C   0  0  0  0  0  0  0  0  0  0  0  0
   -5.6289   -1.5545    4.5604 C   0  0  0  0  0  0  0  0  0  0  0  0
   -5.3137   -2.9078    4.5067 C   0  0  0  0  0  0  0  0  0  0  0  0
   -4.6555   -3.4192    3.3925 C   0  0  0  0  0  0  0  0  0  0  0  0
   -4.3115   -2.5791    2.3283 C   0  0  0  0  0  0  0  0  0  0  0  0
   -3.6405    1.5827    1.6527 C   0  0  0  0  0  0  0  0  0  0  0  0
   -4.0492    2.8126    1.0989 C   0  0  0  0  0  0  0  0  0  0  0  0
   -3.6547    4.0336    1.6592 C   0  0  0  0  0  0  0  0  0  0  0  0
   -2.8419    4.0567    2.7872 C   0  0  0  0  0  0  0  0  0  0  0  0
   -2.4304    2.8599    3.3618 C   0  0  0  0  0  0  0  0  0  0  0  0
   -2.8306    1.6400    2.8072 C   0  0  0  0  0  0  0  0  0  0  0  0
   -3.3305   -1.7571   -1.1658 C   0  0  0  0  0  0  0  0  0  0  0  0
   -2.4554   -2.4509   -2.0069 C   0  0  0  0  0  0  0  0  0  0  0  0
   -1.0586   -2.3643   -1.7998 C   0  0  0  0  0  0  0  0  0  0  0  0
   -0.2436   -3.0430   -2.7444 C   0  0  0  0  0  0  0  0  0  0  0  0
   -0.7738   -3.8032   -3.7907 C   0  0  0  0  0  0  0  0  0  0  0  0
   -2.1467   -3.9054   -3.9392 C   0  0  0  0  0  0  0  0  0  0  0  0
   -2.9811   -3.2288   -3.0544 C   0  0  0  0  0  0  0  0  0  0  0  0
   -1.3110    2.8944    0.6886 H   0  0  0  0  0  0  0  0  0  0  0  0
    4.1228    1.0529    2.4666 H   0  0  0  0  0  0  0  0  0  0  0  0
    3.6399    2.7298    4.1815 H   0  0  0  0  0  0  0  0  0  0  0  0
    2.9253    5.0165    3.5461 H   0  0  0  0  0  0  0  0  0  0  0  0
    2.6824    5.6112    1.1511 H   0  0  0  0  0  0  0  0  0  0  0  0
    3.1424    3.9654   -0.5936 H   0  0  0  0  0  0  0  0  0  0  0  0
    5.5542    3.1933   -2.0864 H   0  0  0  0  0  0  0  0  0  0  0  0
    5.2993    4.1268   -4.3373 H   0  0  0  0  0  0  0  0  0  0  0  0
    3.4974    3.3159   -5.8393 H   0  0  0  0  0  0  0  0  0  0  0  0
    1.9538    1.5368   -5.0625 H   0  0  0  0  0  0  0  0  0  0  0  0
    2.1924    0.5614   -2.8467 H   0  0  0  0  0  0  0  0  0  0  0  0
    6.4551    1.7864    1.3242 H   0  0  0  0  0  0  0  0  0  0  0  0
    8.8112    1.1502    1.3338 H   0  0  0  0  0  0  0  0  0  0  0  0
    9.7307   -0.3330   -0.4272 H   0  0  0  0  0  0  0  0  0  0  0  0
    8.2482   -1.1746   -2.2292 H   0  0  0  0  0  0  0  0  0  0  0  0
    5.8780   -0.5599   -2.2795 H   0  0  0  0  0  0  0  0  0  0  0  0
    4.7704   -1.7308    0.0842 H   0  0  0  0  0  0  0  0  0  0  0  0
   -0.1862   -4.1690    0.0876 H   0  0  0  0  0  0  0  0  0  0  0  0
    1.0453   -6.2204    0.5401 H   0  0  0  0  0  0  0  0  0  0  0  0
    3.5202   -6.1814    0.7371 H   0  0  0  0  0  0  0  0  0  0  0  0
    4.7358   -4.0625    0.4837 H   0  0  0  0  0  0  0  0  0  0  0  0
   -7.1530   -0.5669    1.3338 H   0  0  0  0  0  0  0  0  0  0  0  0
   -9.1164   -0.2077   -0.0678 H   0  0  0  0  0  0  0  0  0  0  0  0
   -8.8961    0.7657   -2.3369 H   0  0  0  0  0  0  0  0  0  0  0  0
   -6.6579    1.3911   -3.1982 H   0  0  0  0  0  0  0  0  0  0  0  0
   -4.6539    1.0568   -1.8222 H   0  0  0  0  0  0  0  0  0  0  0  0
   -5.5537    0.3413    3.5773 H   0  0  0  0  0  0  0  0  0  0  0  0
   -6.1417   -1.1495    5.4291 H   0  0  0  0  0  0  0  0  0  0  0  0
   -5.5790   -3.5633    5.3317 H   0  0  0  0  0  0  0  0  0  0  0  0
   -4.4051   -4.4762    3.3480 H   0  0  0  0  0  0  0  0  0  0  0  0
   -3.7985   -3.0280    1.4796 H   0  0  0  0  0  0  0  0  0  0  0  0
   -4.6922    2.8521    0.2212 H   0  0  0  0  0  0  0  0  0  0  0  0
   -3.9911    4.9669    1.2132 H   0  0  0  0  0  0  0  0  0  0  0  0
   -2.5363    5.0041    3.2238 H   0  0  0  0  0  0  0  0  0  0  0  0
   -1.7932    2.8682    4.2438 H   0  0  0  0  0  0  0  0  0  0  0  0
   -2.4863    0.7261    3.2951 H   0  0  0  0  0  0  0  0  0  0  0  0
   -4.4021   -1.8887   -1.3323 H   0  0  0  0  0  0  0  0  0  0  0  0
    0.8411   -2.9765   -2.6833 H   0  0  0  0  0  0  0  0  0  0  0  0
   -0.1077   -4.3075   -4.4851 H   0  0  0  0  0  0  0  0  0  0  0  0
   -2.5697   -4.4960   -4.7472 H   0  0  0  0  0  0  0  0  0  0  0  0
   -4.0580   -3.3040   -3.1989 H   0  0  0  0  0  0  0  0  0  0  0  0
  2 36  1  0  0  0  0
  2  1  2  0  0  0  0
  3 64  1  0  0  0  0
  3  2  1  0  0  0  0
  4  5  1  0  0  0  0
  4  2  1  0  0  0  0
  5  6  1  0  0  0  0
  6 26  2  0  0  0  0
  7 20  1  0  0  0  0
  7  6  1  0  0  0  0
  7  8  1  0  0  0  0
  8  9  1  0  0  0  0
  9 65  1  0  0  0  0
  9 10  2  0  0  0  0
 10 66  1  0  0  0  0
 11 10  1  0  0  0  0
 11 67  1  0  0  0  0
 12 11  2  0  0  0  0
 13  8  2  0  0  0  0
 13 12  1  0  0  0  0
 14  7  1  0  0  0  0
 15 14  1  0  0  0  0
 15 70  1  0  0  0  0
 16 15  2  0  0  0  0
 17 18  2  0  0  0  0
 17 16  1  0  0  0  0
 18 19  1  0  0  0  0
 19 74  1  0  0  0  0
 19 14  2  0  0  0  0
 20 21  2  0  0  0  0
 21 22  1  0  0  0  0
 21 75  1  0  0  0  0
 22 76  1  0  0  0  0
 23 77  1  0  0  0  0
 23 22  2  0  0  0  0
 24 23  1  0  0  0  0
 25 24  2  0  0  0  0
 25 20  1  0  0  0  0
 26 80  1  0  0  0  0
 26 27  1  0  0  0  0
 27 32  1  0  0  0  0
 28 27  2  0  0  0  0
 28 29  1  0  0  0  0
 29 30  2  0  0  0  0
 30 31  1  0  0  0  0
 30 82  1  0  0  0  0
 31 83  1  0  0  0  0
 32 84  1  0  0  0  0
 32 31  2  0  0  0  0
 33  5  2  0  0  0  0
 33 28  1  0  0  0  0
 34 33  1  0  0  0  0
 34 35  2  0  0  0  0
 35 36  1  0  0  0  0
 37 35  1  0  0  0  0
 37 38  1  0  0  0  0
 38 51  1  0  0  0  0
 38 45  1  0  0  0  0
 39 40  1  0  0  0  0
 39 38  1  0  0  0  0
 40 85  1  0  0  0  0
 41 86  1  0  0  0  0
 41 40  2  0  0  0  0
 42 41  1  0  0  0  0
 43 42  2  0  0  0  0
 43 44  1  0  0  0  0
 44 39  2  0  0  0  0
 45 46  1  0  0  0  0
 46 90  1  0  0  0  0
 46 47  2  0  0  0  0
 47 91  1  0  0  0  0
 48 47  1  0  0  0  0
 48 92  1  0  0  0  0
 49 48  2  0  0  0  0
 50 45  2  0  0  0  0
 50 49  1  0  0  0  0
 51 56  1  0  0  0  0
 52 51  2  0  0  0  0
 52 53  1  0  0  0  0
 53 54  2  0  0  0  0
 54 97  1  0  0  0  0
 54 55  1  0  0  0  0
 55 98  1  0  0  0  0
 56 99  1  0  0  0  0
 56 55  2  0  0  0  0
 57 37  2  0  0  0  0
 58 59  1  0  0  0  0
 58 57  1  0  0  0  0
 59 34  1  0  0  0  0
 60101  1  0  0  0  0
 60 59  2  0  0  0  0
 61 60  1  0  0  0  0
 62 61  2  0  0  0  0
 62 63  1  0  0  0  0
 63 58  2  0  0  0  0
 68 12  1  0  0  0  0
 69 13  1  0  0  0  0
 71 16  1  0  0  0  0
 72 17  1  0  0  0  0
 73 18  1  0  0  0  0
 78 24  1  0  0  0  0
 79 25  1  0  0  0  0
 81 29  1  0  0  0  0
 87 42  1  0  0  0  0
 88 43  1  0  0  0  0
 89 44  1  0  0  0  0
 93 49  1  0  0  0  0
 94 50  1  0  0  0  0
 95 52  1  0  0  0  0
 96 53  1  0  0  0  0
100 57  1  0  0  0  0
102 61  1  0  0  0  0
103 62  1  0  0  0  0
104 63  1  0  0  0  0
M  END
$$$$
