O=P1(O)OC2=C(CC)C=C3C(CCCC3)=C2C4=C(O1)C(CC)=CC5=C4CCCC5
 OpenBabel09032010373D

 58 62  0  0  0  0  0  0  0  0999 V2000
    1.4716    3.9293    1.5292 O   0  0  0  0  0  0  0  0  0  0  0  0
    0.5747    3.1661    0.6026 P   0  0  0  0  0  0  0  0  0  0  0  0
   -0.2012    4.1979   -0.3591 O   0  0  0  0  0  0  0  0  0  0  0  0
    1.3286    2.1960   -0.4413 O   0  0  0  0  0  0  0  0  0  0  0  0
    1.7266    0.9724    0.0377 C   0  0  0  0  0  0  0  0  0  0  0  0
    3.1027    0.7376    0.1590 C   0  0  0  0  0  0  0  0  0  0  0  0
    4.1284    1.7562   -0.2734 C   0  0  0  0  0  0  0  0  0  0  0  0
    4.3962    1.6912   -1.7696 C   0  0  0  0  0  0  0  0  0  0  0  0
    3.5192   -0.4849    0.6854 C   0  0  0  0  0  0  0  0  0  0  0  0
    2.5897   -1.4316    1.1375 C   0  0  0  0  0  0  0  0  0  0  0  0
    1.2040   -1.1706    1.0168 C   0  0  0  0  0  0  0  0  0  0  0  0
    0.2091   -2.1186    1.6744 C   0  0  0  0  0  0  0  0  0  0  0  0
    0.8336   -3.0450    2.7167 C   0  0  0  0  0  0  0  0  0  0  0  0
    2.0658   -3.7158    2.1329 C   0  0  0  0  0  0  0  0  0  0  0  0
    3.1274   -2.6679    1.8221 C   0  0  0  0  0  0  0  0  0  0  0  0
    0.7416    0.0164    0.3654 C   0  0  0  0  0  0  0  0  0  0  0  0
   -0.6397    0.2695    0.0601 C   0  0  0  0  0  0  0  0  0  0  0  0
   -1.3075    1.3949    0.6016 C   0  0  0  0  0  0  0  0  0  0  0  0
   -0.6020    2.3308    1.3200 O   0  0  0  0  0  0  0  0  0  0  0  0
   -2.6934    1.5856    0.4921 C   0  0  0  0  0  0  0  0  0  0  0  0
   -3.4064    2.7447    1.1474 C   0  0  0  0  0  0  0  0  0  0  0  0
   -3.7789    3.8337    0.1517 C   0  0  0  0  0  0  0  0  0  0  0  0
   -3.4305    0.6724   -0.2645 C   0  0  0  0  0  0  0  0  0  0  0  0
   -2.8052   -0.3865   -0.9341 C   0  0  0  0  0  0  0  0  0  0  0  0
   -1.4088   -0.5702   -0.8059 C   0  0  0  0  0  0  0  0  0  0  0  0
   -0.7152   -1.6108   -1.6770 C   0  0  0  0  0  0  0  0  0  0  0  0
   -1.5504   -2.0774   -2.8685 C   0  0  0  0  0  0  0  0  0  0  0  0
   -2.9417   -2.4657   -2.3972 C   0  0  0  0  0  0  0  0  0  0  0  0
   -3.6597   -1.2420   -1.8416 C   0  0  0  0  0  0  0  0  0  0  0  0
    0.2479    5.0620   -0.3285 H   0  0  0  0  0  0  0  0  0  0  0  0
    5.0668    1.5921    0.2707 H   0  0  0  0  0  0  0  0  0  0  0  0
    3.7985    2.7636    0.0058 H   0  0  0  0  0  0  0  0  0  0  0  0
    3.4896    1.8976   -2.3482 H   0  0  0  0  0  0  0  0  0  0  0  0
    4.7636    0.7021   -2.0633 H   0  0  0  0  0  0  0  0  0  0  0  0
    5.1521    2.4313   -2.0507 H   0  0  0  0  0  0  0  0  0  0  0  0
    4.5838   -0.6898    0.7897 H   0  0  0  0  0  0  0  0  0  0  0  0
   -0.5796   -1.5416    2.1718 H   0  0  0  0  0  0  0  0  0  0  0  0
   -0.2636   -2.7445    0.9156 H   0  0  0  0  0  0  0  0  0  0  0  0
    0.1009   -3.8001    3.0230 H   0  0  0  0  0  0  0  0  0  0  0  0
    1.1060   -2.4764    3.6147 H   0  0  0  0  0  0  0  0  0  0  0  0
    1.7942   -4.2580    1.2183 H   0  0  0  0  0  0  0  0  0  0  0  0
    2.4689   -4.4536    2.8355 H   0  0  0  0  0  0  0  0  0  0  0  0
    3.5996   -2.3530    2.7618 H   0  0  0  0  0  0  0  0  0  0  0  0
    3.9052   -3.1259    1.1992 H   0  0  0  0  0  0  0  0  0  0  0  0
   -4.3141    2.3707    1.6376 H   0  0  0  0  0  0  0  0  0  0  0  0
   -2.7977    3.1771    1.9493 H   0  0  0  0  0  0  0  0  0  0  0  0
   -4.4595    3.4562   -0.6187 H   0  0  0  0  0  0  0  0  0  0  0  0
   -4.2796    4.6599    0.6664 H   0  0  0  0  0  0  0  0  0  0  0  0
   -2.8939    4.2338   -0.3516 H   0  0  0  0  0  0  0  0  0  0  0  0
   -4.5055    0.8117   -0.3718 H   0  0  0  0  0  0  0  0  0  0  0  0
   -0.4701   -2.4905   -1.0797 H   0  0  0  0  0  0  0  0  0  0  0  0
    0.2226   -1.2001   -2.0697 H   0  0  0  0  0  0  0  0  0  0  0  0
   -1.0609   -2.9326   -3.3478 H   0  0  0  0  0  0  0  0  0  0  0  0
   -1.6175   -1.2806   -3.6199 H   0  0  0  0  0  0  0  0  0  0  0  0
   -2.8682   -3.2411   -1.6242 H   0  0  0  0  0  0  0  0  0  0  0  0
   -3.5212   -2.8908   -3.2242 H   0  0  0  0  0  0  0  0  0  0  0  0
   -3.9912   -0.6154   -2.6797 H   0  0  0  0  0  0  0  0  0  0  0  0
   -4.5555   -1.5721   -1.3019 H   0  0  0  0  0  0  0  0  0  0  0  0
  2 19  1  0  0  0  0
  2  1  2  0  0  0  0
  3 30  1  0  0  0  0
  3  2  1  0  0  0  0
  4  5  1  0  0  0  0
  4  2  1  0  0  0  0
  5  6  2  0  0  0  0
  5 16  1  0  0  0  0
  6  9  1  0  0  0  0
  7 32  1  0  0  0  0
  7  6  1  0  0  0  0
  7 31  1  0  0  0  0
  8  7  1  0  0  0  0
  9 36  1  0  0  0  0
  9 10  2  0  0  0  0
 10 15  1  0  0  0  0
 11 10  1  0  0  0  0
 11 12  1  0  0  0  0
 12 37  1  0  0  0  0
 12 13  1  0  0  0  0
 13 39  1  0  0  0  0
 13 40  1  0  0  0  0
 14 13  1  0  0  0  0
 14 42  1  0  0  0  0
 15 14  1  0  0  0  0
 15 43  1  0  0  0  0
 16 11  2  0  0  0  0
 17 16  1  0  0  0  0
 17 18  2  0  0  0  0
 18 19  1  0  0  0  0
 20 18  1  0  0  0  0
 20 21  1  0  0  0  0
 21 45  1  0  0  0  0
 21 46  1  0  0  0  0
 22 48  1  0  0  0  0
 22 21  1  0  0  0  0
 23 20  2  0  0  0  0
 24 25  2  0  0  0  0
 24 23  1  0  0  0  0
 25 17  1  0  0  0  0
 26 51  1  0  0  0  0
 26 25  1  0  0  0  0
 27 28  1  0  0  0  0
 27 26  1  0  0  0  0
 28 29  1  0  0  0  0
 28 55  1  0  0  0  0
 29 58  1  0  0  0  0
 29 24  1  0  0  0  0
 33  8  1  0  0  0  0
 34  8  1  0  0  0  0
 35  8  1  0  0  0  0
 38 12  1  0  0  0  0
 41 14  1  0  0  0  0
 44 15  1  0  0  0  0
 47 22  1  0  0  0  0
 49 22  1  0  0  0  0
 50 23  1  0  0  0  0
 52 26  1  0  0  0  0
 53 27  1  0  0  0  0
 54 27  1  0  0  0  0
 56 28  1  0  0  0  0
 57 29  1  0  0  0  0
M  END
$$$$
