O=P1(O)OC2=C(C3=C(C4CCCCC4)C=C(C5CCCCC5)C=C3C6CCCCC6)C=C7C(C=CC=C7)=C2C8=C(O1)[C@@]([C@@]9=C(C%10CCCCC%10)C=C(C%11CCCCC%11)C=C9C%12CCCCC%12)=CC%13=C8C=CC=C%13
 OpenBabel09032010373D

154166  0  0  0  0  0  0  0  0999 V2000
   -0.6857   -1.7363    0.4727 O   0  0  0  0  0  0  0  0  0  0  0  0
    0.0472   -0.5146    0.0168 P   0  0  0  0  0  0  0  0  0  0  0  0
    1.0088   -0.8607   -1.2234 O   0  0  0  0  0  0  0  0  0  0  0  0
    1.0514    0.1086    1.1046 O   0  0  0  0  0  0  0  0  0  0  0  0
    1.6075    1.3505    0.9171 C   0  0  0  0  0  0  0  0  0  0  0  0
    3.0139    1.4090    0.8713 C   0  0  0  0  0  0  0  0  0  0  0  0
    3.8700    0.2063    0.9677 C   0  0  0  0  0  0  0  0  0  0  0  0
    4.4252   -0.3591   -0.2260 C   0  0  0  0  0  0  0  0  0  0  0  0
    4.2051    0.2572   -1.6180 C   0  0  0  0  0  0  0  0  0  0  0  0
    5.4349    1.0928   -2.0325 C   0  0  0  0  0  0  0  0  0  0  0  0
    5.3544    1.4973   -3.4996 C   0  0  0  0  0  0  0  0  0  0  0  0
    5.3361    0.2885   -4.4345 C   0  0  0  0  0  0  0  0  0  0  0  0
    4.8993   -1.0068   -3.7529 C   0  0  0  0  0  0  0  0  0  0  0  0
    3.8084   -0.7698   -2.7116 C   0  0  0  0  0  0  0  0  0  0  0  0
    5.2449   -1.5025   -0.1369 C   0  0  0  0  0  0  0  0  0  0  0  0
    5.5150   -2.1264    1.0799 C   0  0  0  0  0  0  0  0  0  0  0  0
    6.3866   -3.3661    1.1679 C   0  0  0  0  0  0  0  0  0  0  0  0
    7.8675   -3.0383    0.8858 C   0  0  0  0  0  0  0  0  0  0  0  0
    8.6728   -4.2416    0.3860 C   0  0  0  0  0  0  0  0  0  0  0  0
    8.1317   -5.5567    0.9291 C   0  0  0  0  0  0  0  0  0  0  0  0
    6.6817   -5.7972    0.5046 C   0  0  0  0  0  0  0  0  0  0  0  0
    5.8897   -4.5076    0.2682 C   0  0  0  0  0  0  0  0  0  0  0  0
    4.9768   -1.5644    2.2386 C   0  0  0  0  0  0  0  0  0  0  0  0
    4.1741   -0.3974    2.2222 C   0  0  0  0  0  0  0  0  0  0  0  0
    3.7036    0.0678    3.6082 C   0  0  0  0  0  0  0  0  0  0  0  0
    2.4279   -0.6787    4.0548 C   0  0  0  0  0  0  0  0  0  0  0  0
    1.6036    0.0904    5.0898 C   0  0  0  0  0  0  0  0  0  0  0  0
    2.4960    0.8300    6.0787 C   0  0  0  0  0  0  0  0  0  0  0  0
    3.4145    1.8437    5.3919 C   0  0  0  0  0  0  0  0  0  0  0  0
    3.6114    1.5731    3.8960 C   0  0  0  0  0  0  0  0  0  0  0  0
    3.6136    2.6640    0.7250 C   0  0  0  0  0  0  0  0  0  0  0  0
    2.8533    3.8261    0.5904 C   0  0  0  0  0  0  0  0  0  0  0  0
    1.4375    3.7594    0.6578 C   0  0  0  0  0  0  0  0  0  0  0  0
    0.7445    4.9757    0.4259 C   0  0  0  0  0  0  0  0  0  0  0  0
    1.4033    6.1886    0.2061 C   0  0  0  0  0  0  0  0  0  0  0  0
    2.7877    6.2283    0.1933 C   0  0  0  0  0  0  0  0  0  0  0  0
    3.5075    5.0518    0.3786 C   0  0  0  0  0  0  0  0  0  0  0  0
    0.7782    2.5001    0.9052 C   0  0  0  0  0  0  0  0  0  0  0  0
   -0.6426    2.3905    1.1641 C   0  0  0  0  0  0  0  0  0  0  0  0
   -1.4479    1.5194    0.3916 C   0  0  0  0  0  0  0  0  0  0  0  0
   -0.8476    0.7015   -0.5358 O   0  0  0  0  0  0  0  0  0  0  0  0
   -2.8535    1.5045    0.4480 C   0  0  0  0  0  0  0  0  0  0  0  0
   -3.6792    0.6629   -0.4482 C   0  0  0  0  0  0  0  0  0  0  0  0
   -4.2364   -0.5613    0.0262 C   0  0  0  0  0  0  0  0  0  0  0  0
   -4.0139   -1.0711    1.4568 C   0  0  0  0  0  0  0  0  0  0  0  0
   -3.6075   -2.5652    1.5420 C   0  0  0  0  0  0  0  0  0  0  0  0
   -4.7014   -3.4629    2.1146 C   0  0  0  0  0  0  0  0  0  0  0  0
   -5.1573   -3.0039    3.4986 C   0  0  0  0  0  0  0  0  0  0  0  0
   -5.1684   -1.4851    3.6688 C   0  0  0  0  0  0  0  0  0  0  0  0
   -5.2438   -0.7549    2.3334 C   0  0  0  0  0  0  0  0  0  0  0  0
   -5.0485   -1.3230   -0.8357 C   0  0  0  0  0  0  0  0  0  0  0  0
   -5.3044   -0.9311   -2.1508 C   0  0  0  0  0  0  0  0  0  0  0  0
   -6.1653   -1.7688   -3.0806 C   0  0  0  0  0  0  0  0  0  0  0  0
   -5.5509   -3.1568   -3.3341 C   0  0  0  0  0  0  0  0  0  0  0  0
   -6.4197   -3.9879   -4.2767 C   0  0  0  0  0  0  0  0  0  0  0  0
   -7.8541   -4.0998   -3.7684 C   0  0  0  0  0  0  0  0  0  0  0  0
   -8.4704   -2.7274   -3.5131 C   0  0  0  0  0  0  0  0  0  0  0  0
   -7.6108   -1.8906   -2.5672 C   0  0  0  0  0  0  0  0  0  0  0  0
   -4.7455    0.2662   -2.6074 C   0  0  0  0  0  0  0  0  0  0  0  0
   -3.9477    1.0850   -1.7873 C   0  0  0  0  0  0  0  0  0  0  0  0
   -3.3885    2.4017   -2.3511 C   0  0  0  0  0  0  0  0  0  0  0  0
   -4.4720    3.4070   -2.7955 C   0  0  0  0  0  0  0  0  0  0  0  0
   -4.9092    3.3102   -4.2551 C   0  0  0  0  0  0  0  0  0  0  0  0
   -3.7243    3.2258   -5.2075 C   0  0  0  0  0  0  0  0  0  0  0  0
   -2.7878    2.0809   -4.8465 C   0  0  0  0  0  0  0  0  0  0  0  0
   -2.2884    2.1885   -3.4088 C   0  0  0  0  0  0  0  0  0  0  0  0
   -3.4811    2.3519    1.3643 C   0  0  0  0  0  0  0  0  0  0  0  0
   -2.7438    3.1466    2.2442 C   0  0  0  0  0  0  0  0  0  0  0  0
   -1.3264    3.1614    2.1715 C   0  0  0  0  0  0  0  0  0  0  0  0
   -0.6552    3.9274    3.1589 C   0  0  0  0  0  0  0  0  0  0  0  0
   -1.3373    4.6803    4.1179 C   0  0  0  0  0  0  0  0  0  0  0  0
   -2.7226    4.6826    4.1338 C   0  0  0  0  0  0  0  0  0  0  0  0
   -3.4207    3.9161    3.2051 C   0  0  0  0  0  0  0  0  0  0  0  0
    1.3823   -1.7520   -1.1001 H   0  0  0  0  0  0  0  0  0  0  0  0
    3.3486    0.9388   -1.5655 H   0  0  0  0  0  0  0  0  0  0  0  0
    6.3659    0.5359   -1.8640 H   0  0  0  0  0  0  0  0  0  0  0  0
    5.5055    1.9932   -1.4131 H   0  0  0  0  0  0  0  0  0  0  0  0
    6.1967    2.1491   -3.7586 H   0  0  0  0  0  0  0  0  0  0  0  0
    4.4450    2.0908   -3.6578 H   0  0  0  0  0  0  0  0  0  0  0  0
    6.3334    0.1388   -4.8658 H   0  0  0  0  0  0  0  0  0  0  0  0
    4.6706    0.5062   -5.2788 H   0  0  0  0  0  0  0  0  0  0  0  0
    5.7691   -1.4756   -3.2787 H   0  0  0  0  0  0  0  0  0  0  0  0
    4.5451   -1.7154   -4.5105 H   0  0  0  0  0  0  0  0  0  0  0  0
    3.4941   -1.7263   -2.2786 H   0  0  0  0  0  0  0  0  0  0  0  0
    2.9281   -0.3813   -3.2422 H   0  0  0  0  0  0  0  0  0  0  0  0
    5.6907   -1.9110   -1.0399 H   0  0  0  0  0  0  0  0  0  0  0  0
    6.3287   -3.7412    2.2003 H   0  0  0  0  0  0  0  0  0  0  0  0
    8.3194   -2.6567    1.8110 H   0  0  0  0  0  0  0  0  0  0  0  0
    7.9740   -2.2294    0.1521 H   0  0  0  0  0  0  0  0  0  0  0  0
    8.6426   -4.2670   -0.7107 H   0  0  0  0  0  0  0  0  0  0  0  0
    9.7253   -4.1198    0.6659 H   0  0  0  0  0  0  0  0  0  0  0  0
    8.1922   -5.5444    2.0248 H   0  0  0  0  0  0  0  0  0  0  0  0
    8.7559   -6.3924    0.5932 H   0  0  0  0  0  0  0  0  0  0  0  0
    6.6583   -6.3961   -0.4140 H   0  0  0  0  0  0  0  0  0  0  0  0
    6.1861   -6.4011    1.2745 H   0  0  0  0  0  0  0  0  0  0  0  0
    5.9867   -4.2259   -0.7883 H   0  0  0  0  0  0  0  0  0  0  0  0
    4.8230   -4.7022    0.4355 H   0  0  0  0  0  0  0  0  0  0  0  0
    5.1919   -2.0424    3.1947 H   0  0  0  0  0  0  0  0  0  0  0  0
    4.4974   -0.2622    4.2985 H   0  0  0  0  0  0  0  0  0  0  0  0
    1.7816   -0.9275    3.2084 H   0  0  0  0  0  0  0  0  0  0  0  0
    2.7250   -1.6456    4.4834 H   0  0  0  0  0  0  0  0  0  0  0  0
    0.9505    0.8091    4.5787 H   0  0  0  0  0  0  0  0  0  0  0  0
    0.9457   -0.6050    5.6232 H   0  0  0  0  0  0  0  0  0  0  0  0
    1.8846    1.3392    6.8324 H   0  0  0  0  0  0  0  0  0  0  0  0
    3.1094    0.0990    6.6208 H   0  0  0  0  0  0  0  0  0  0  0  0
    4.3861    1.8433    5.9008 H   0  0  0  0  0  0  0  0  0  0  0  0
    3.0070    2.8547    5.5148 H   0  0  0  0  0  0  0  0  0  0  0  0
    2.7573    2.0177    3.3799 H   0  0  0  0  0  0  0  0  0  0  0  0
    4.5112    2.0951    3.5508 H   0  0  0  0  0  0  0  0  0  0  0  0
    4.7011    2.7226    0.7009 H   0  0  0  0  0  0  0  0  0  0  0  0
   -0.3437    4.9939    0.3991 H   0  0  0  0  0  0  0  0  0  0  0  0
    0.8267    7.0947    0.0403 H   0  0  0  0  0  0  0  0  0  0  0  0
    3.3081    7.1666    0.0230 H   0  0  0  0  0  0  0  0  0  0  0  0
    4.5945    5.0976    0.3419 H   0  0  0  0  0  0  0  0  0  0  0  0
   -3.1600   -0.5341    1.8863 H   0  0  0  0  0  0  0  0  0  0  0  0
   -2.7374   -2.6453    2.2083 H   0  0  0  0  0  0  0  0  0  0  0  0
   -3.2742   -2.9527    0.5723 H   0  0  0  0  0  0  0  0  0  0  0  0
   -5.5632   -3.4759    1.4376 H   0  0  0  0  0  0  0  0  0  0  0  0
   -4.3433   -4.4972    2.1736 H   0  0  0  0  0  0  0  0  0  0  0  0
   -4.5069   -3.4396    4.2669 H   0  0  0  0  0  0  0  0  0  0  0  0
   -6.1604   -3.4051    3.6880 H   0  0  0  0  0  0  0  0  0  0  0  0
   -4.2578   -1.1735    4.1961 H   0  0  0  0  0  0  0  0  0  0  0  0
   -6.0099   -1.1932    4.3075 H   0  0  0  0  0  0  0  0  0  0  0  0
   -5.3093    0.3238    2.5132 H   0  0  0  0  0  0  0  0  0  0  0  0
   -6.1750   -1.0346    1.8237 H   0  0  0  0  0  0  0  0  0  0  0  0
   -5.4889   -2.2477   -0.4728 H   0  0  0  0  0  0  0  0  0  0  0  0
   -6.2130   -1.2578   -4.0531 H   0  0  0  0  0  0  0  0  0  0  0  0
   -4.5473   -3.0508   -3.7644 H   0  0  0  0  0  0  0  0  0  0  0  0
   -5.4297   -3.7049   -2.3911 H   0  0  0  0  0  0  0  0  0  0  0  0
   -6.4197   -3.5288   -5.2729 H   0  0  0  0  0  0  0  0  0  0  0  0
   -5.9888   -4.9894   -4.3871 H   0  0  0  0  0  0  0  0  0  0  0  0
   -7.8673   -4.6838   -2.8399 H   0  0  0  0  0  0  0  0  0  0  0  0
   -8.4618   -4.6464   -4.4983 H   0  0  0  0  0  0  0  0  0  0  0  0
   -8.5875   -2.1964   -4.4658 H   0  0  0  0  0  0  0  0  0  0  0  0
   -9.4738   -2.8473   -3.0893 H   0  0  0  0  0  0  0  0  0  0  0  0
   -8.0562   -0.8939   -2.4581 H   0  0  0  0  0  0  0  0  0  0  0  0
   -7.6306   -2.3517   -1.5716 H   0  0  0  0  0  0  0  0  0  0  0  0
   -4.9442    0.5590   -3.6320 H   0  0  0  0  0  0  0  0  0  0  0  0
   -2.8857    2.9179   -1.5273 H   0  0  0  0  0  0  0  0  0  0  0  0
   -5.3502    3.3473   -2.1408 H   0  0  0  0  0  0  0  0  0  0  0  0
   -4.0606    4.4165   -2.6538 H   0  0  0  0  0  0  0  0  0  0  0  0
   -5.5118    4.1912   -4.5071 H   0  0  0  0  0  0  0  0  0  0  0  0
   -5.5667    2.4484   -4.4023 H   0  0  0  0  0  0  0  0  0  0  0  0
   -4.0864    3.0956   -6.2336 H   0  0  0  0  0  0  0  0  0  0  0  0
   -3.1698    4.1722   -5.1845 H   0  0  0  0  0  0  0  0  0  0  0  0
   -3.2904    1.1217   -5.0058 H   0  0  0  0  0  0  0  0  0  0  0  0
   -1.9277    2.0901   -5.5267 H   0  0  0  0  0  0  0  0  0  0  0  0
   -1.6100    3.0519   -3.3635 H   0  0  0  0  0  0  0  0  0  0  0  0
   -1.6767    1.3111   -3.1669 H   0  0  0  0  0  0  0  0  0  0  0  0
   -4.5698    2.3636    1.4033 H   0  0  0  0  0  0  0  0  0  0  0  0
    0.4325    3.9371    3.2048 H   0  0  0  0  0  0  0  0  0  0  0  0
   -0.7792    5.2564    4.8510 H   0  0  0  0  0  0  0  0  0  0  0  0
   -3.2608    5.2642    4.8766 H   0  0  0  0  0  0  0  0  0  0  0  0
   -4.5083    3.9112    3.2487 H   0  0  0  0  0  0  0  0  0  0  0  0
  2  1  2  0  0  0  0
  2  4  1  0  0  0  0
  3 74  1  0  0  0  0
  3  2  1  0  0  0  0
  5  4  1  0  0  0  0
  6  5  1  0  0  0  0
  6  7  1  0  0  0  0
  7 24  2  0  0  0  0
  8 15  2  0  0  0  0
  8  7  1  0  0  0  0
  9 75  1  0  0  0  0
  9  8  1  0  0  0  0
 10 76  1  0  0  0  0
 10  9  1  0  0  0  0
 10 77  1  0  0  0  0
 11 10  1  0  0  0  0
 12 13  1  0  0  0  0
 12 11  1  0  0  0  0
 13 82  1  0  0  0  0
 13 14  1  0  0  0  0
 14 84  1  0  0  0  0
 14  9  1  0  0  0  0
 15 16  1  0  0  0  0
 16 17  1  0  0  0  0
 16 23  2  0  0  0  0
 17 87  1  0  0  0  0
 18 17  1  0  0  0  0
 18 88  1  0  0  0  0
 19 91  1  0  0  0  0
 19 18  1  0  0  0  0
 19 20  1  0  0  0  0
 20 92  1  0  0  0  0
 21 20  1  0  0  0  0
 21 95  1  0  0  0  0
 22 97  1  0  0  0  0
 22 21  1  0  0  0  0
 22 17  1  0  0  0  0
 23 98  1  0  0  0  0
 24 23  1  0  0  0  0
 24 25  1  0  0  0  0
 25 30  1  0  0  0  0
 25 26  1  0  0  0  0
 25 99  1  0  0  0  0
 26101  1  0  0  0  0
 26 27  1  0  0  0  0
 27103  1  0  0  0  0
 27 28  1  0  0  0  0
 28105  1  0  0  0  0
 28104  1  0  0  0  0
 29107  1  0  0  0  0
 29106  1  0  0  0  0
 29 28  1  0  0  0  0
 30 29  1  0  0  0  0
 31  6  2  0  0  0  0
 32 33  1  0  0  0  0
 32 31  1  0  0  0  0
 33 38  1  0  0  0  0
 34 33  2  0  0  0  0
 35 34  1  0  0  0  0
 36 35  2  0  0  0  0
 36 37  1  0  0  0  0
 37 32  2  0  0  0  0
 38  5  2  0  0  0  0
 38 39  1  0  0  0  0
 39 69  2  0  0  0  0
 40 42  2  0  0  0  0
 40 39  1  0  0  0  0
 41  2  1  0  0  0  0
 41 40  1  0  0  0  0
 42 67  1  0  0  0  0
 43 44  1  0  0  0  0
 43 42  1  0  0  0  0
 44 45  1  0  0  0  0
 45 46  1  0  0  0  0
 45115  1  0  0  0  0
 45 50  1  0  0  0  0
 46 47  1  0  0  0  0
 46116  1  0  0  0  0
 47119  1  0  0  0  0
 47 48  1  0  0  0  0
 48 49  1  0  0  0  0
 48121  1  0  0  0  0
 48120  1  0  0  0  0
 49122  1  0  0  0  0
 49123  1  0  0  0  0
 50124  1  0  0  0  0
 50 49  1  0  0  0  0
 51126  1  0  0  0  0
 51 44  2  0  0  0  0
 52 51  1  0  0  0  0
 53 58  1  0  0  0  0
 53 52  1  0  0  0  0
 54 53  1  0  0  0  0
 54129  1  0  0  0  0
 55 56  1  0  0  0  0
 55 54  1  0  0  0  0
 56 57  1  0  0  0  0
 56132  1  0  0  0  0
 57135  1  0  0  0  0
 57 58  1  0  0  0  0
 58136  1  0  0  0  0
 58137  1  0  0  0  0
 59 52  2  0  0  0  0
 59 60  1  0  0  0  0
 60 43  2  0  0  0  0
 61 60  1  0  0  0  0
 61139  1  0  0  0  0
 62141  1  0  0  0  0
 62 61  1  0  0  0  0
 62140  1  0  0  0  0
 63 62  1  0  0  0  0
 64145  1  0  0  0  0
 64 65  1  0  0  0  0
 64 63  1  0  0  0  0
 65 66  1  0  0  0  0
 66148  1  0  0  0  0
 66149  1  0  0  0  0
 66 61  1  0  0  0  0
 67150  1  0  0  0  0
 67 68  2  0  0  0  0
 68 73  1  0  0  0  0
 69 68  1  0  0  0  0
 69 70  1  0  0  0  0
 70151  1  0  0  0  0
 70 71  2  0  0  0  0
 71 72  1  0  0  0  0
 71152  1  0  0  0  0
 72153  1  0  0  0  0
 73154  1  0  0  0  0
 73 72  2  0  0  0  0
 78 11  1  0  0  0  0
 79 11  1  0  0  0  0
 80 12  1  0  0  0  0
 81 12  1  0  0  0  0
 83 13  1  0  0  0  0
 85 14  1  0  0  0  0
 86 15  1  0  0  0  0
 89 18  1  0  0  0  0
 90 19  1  0  0  0  0
 93 20  1  0  0  0  0
 94 21  1  0  0  0  0
 96 22  1  0  0  0  0
100 26  1  0  0  0  0
102 27  1  0  0  0  0
108 30  1  0  0  0  0
109 30  1  0  0  0  0
110 31  1  0  0  0  0
111 34  1  0  0  0  0
112 35  1  0  0  0  0
113 36  1  0  0  0  0
114 37  1  0  0  0  0
117 46  1  0  0  0  0
118 47  1  0  0  0  0
125 50  1  0  0  0  0
127 53  1  0  0  0  0
128 54  1  0  0  0  0
130 55  1  0  0  0  0
131 55  1  0  0  0  0
133 56  1  0  0  0  0
134 57  1  0  0  0  0
138 59  1  0  0  0  0
142 63  1  0  0  0  0
143 63  1  0  0  0  0
144 64  1  0  0  0  0
146 65  1  0  0  0  0
147 65  1  0  0  0  0
M  END
$$$$
