O=P1(O)OC2=C(C3=CC(C4=CC(C(F)(F)F)=CC(C(F)(F)F)=C4)=CC(C5=CC(C(F)(F)F)=CC(C(F)(F)F)=C5)=C3)C=C6C(C=CC=C6)=C2C7=C(O1)C(C8=CC(C9=CC(C(F)(F)F)=CC(C(F)(F)F)=C9)=CC(C%10=CC(C(F)(F)F)=CC(C(F)(F)F)=C%10)=C8)=CC%11=C7C=CC=C%11
 OpenBabel09032010373D

122132  0  0  0  0  0  0  0  0999 V2000
    0.2683   -1.0377   -0.7623 O   0  0  0  0  0  0  0  0  0  0  0  0
    0.0401   -0.1895    0.4552 P   0  0  0  0  0  0  0  0  0  0  0  0
   -0.4529   -1.1091    1.6841 O   0  0  0  0  0  0  0  0  0  0  0  0
    1.3410    0.5094    1.0842 O   0  0  0  0  0  0  0  0  0  0  0  0
    1.7309    1.7199    0.5696 C   0  0  0  0  0  0  0  0  0  0  0  0
    2.9466    1.7412   -0.1358 C   0  0  0  0  0  0  0  0  0  0  0  0
    3.7418    0.5276   -0.3682 C   0  0  0  0  0  0  0  0  0  0  0  0
    3.4687   -0.3034   -1.4666 C   0  0  0  0  0  0  0  0  0  0  0  0
    4.2231   -1.4574   -1.7162 C   0  0  0  0  0  0  0  0  0  0  0  0
    3.9356   -2.3426   -2.8609 C   0  0  0  0  0  0  0  0  0  0  0  0
    2.6304   -2.7803   -3.1435 C   0  0  0  0  0  0  0  0  0  0  0  0
    2.3578   -3.6494   -4.2162 C   0  0  0  0  0  0  0  0  0  0  0  0
    0.9475   -4.1243   -4.4836 C   0  0  0  0  0  0  0  0  0  0  0  0
   -0.0011   -3.2693   -4.0110 F   0  0  0  0  0  0  0  0  0  0  0  0
    0.6920   -5.3288   -3.9053 F   0  0  0  0  0  0  0  0  0  0  0  0
    0.6835   -4.2783   -5.8105 F   0  0  0  0  0  0  0  0  0  0  0  0
    3.4223   -4.1046   -5.0090 C   0  0  0  0  0  0  0  0  0  0  0  0
    4.7369   -3.6937   -4.7473 C   0  0  0  0  0  0  0  0  0  0  0  0
    5.8911   -4.1710   -5.5954 C   0  0  0  0  0  0  0  0  0  0  0  0
    6.2113   -3.2830   -6.5758 F   0  0  0  0  0  0  0  0  0  0  0  0
    5.6365   -5.3506   -6.2271 F   0  0  0  0  0  0  0  0  0  0  0  0
    7.0310   -4.3696   -4.8778 F   0  0  0  0  0  0  0  0  0  0  0  0
    4.9734   -2.8028   -3.6883 C   0  0  0  0  0  0  0  0  0  0  0  0
    5.2779   -1.7534   -0.8334 C   0  0  0  0  0  0  0  0  0  0  0  0
    5.5868   -0.9532    0.2826 C   0  0  0  0  0  0  0  0  0  0  0  0
    6.7091   -1.3116    1.1784 C   0  0  0  0  0  0  0  0  0  0  0  0
    6.9633   -2.6532    1.5178 C   0  0  0  0  0  0  0  0  0  0  0  0
    8.0589   -3.0283    2.3141 C   0  0  0  0  0  0  0  0  0  0  0  0
    8.2956   -4.4879    2.6210 C   0  0  0  0  0  0  0  0  0  0  0  0
    8.1043   -5.2868    1.5340 F   0  0  0  0  0  0  0  0  0  0  0  0
    9.5577   -4.7485    3.0603 F   0  0  0  0  0  0  0  0  0  0  0  0
    7.4570   -4.9557    3.5851 F   0  0  0  0  0  0  0  0  0  0  0  0
    8.8989   -2.0295    2.8232 C   0  0  0  0  0  0  0  0  0  0  0  0
    8.6633   -0.6779    2.5299 C   0  0  0  0  0  0  0  0  0  0  0  0
    9.5880    0.3903    3.0664 C   0  0  0  0  0  0  0  0  0  0  0  0
   10.7141    0.5244    2.3152 F   0  0  0  0  0  0  0  0  0  0  0  0
   10.0090    0.1320    4.3349 F   0  0  0  0  0  0  0  0  0  0  0  0
    9.0125    1.6239    3.1084 F   0  0  0  0  0  0  0  0  0  0  0  0
    7.5791   -0.3376    1.6986 C   0  0  0  0  0  0  0  0  0  0  0  0
    4.7956    0.1865    0.4972 C   0  0  0  0  0  0  0  0  0  0  0  0
    3.3978    2.9651   -0.6267 C   0  0  0  0  0  0  0  0  0  0  0  0
    2.6552    4.1348   -0.4516 C   0  0  0  0  0  0  0  0  0  0  0  0
    1.4229    4.1009    0.2572 C   0  0  0  0  0  0  0  0  0  0  0  0
    0.6972    5.3197    0.2930 C   0  0  0  0  0  0  0  0  0  0  0  0
    1.1802    6.5064   -0.2667 C   0  0  0  0  0  0  0  0  0  0  0  0
    2.4074    6.5157   -0.9073 C   0  0  0  0  0  0  0  0  0  0  0  0
    3.1356    5.3343   -1.0053 C   0  0  0  0  0  0  0  0  0  0  0  0
    0.9481    2.8676    0.8437 C   0  0  0  0  0  0  0  0  0  0  0  0
   -0.2511    2.7783    1.6662 C   0  0  0  0  0  0  0  0  0  0  0  0
   -1.3110    1.8850    1.3340 C   0  0  0  0  0  0  0  0  0  0  0  0
   -1.1021    0.9540    0.3245 O   0  0  0  0  0  0  0  0  0  0  0  0
   -2.6213    1.9789    1.9015 C   0  0  0  0  0  0  0  0  0  0  0  0
   -3.7895    1.1978    1.4087 C   0  0  0  0  0  0  0  0  0  0  0  0
   -5.0678    1.7423    1.1692 C   0  0  0  0  0  0  0  0  0  0  0  0
   -6.1010    0.9840    0.5673 C   0  0  0  0  0  0  0  0  0  0  0  0
   -7.4853    1.4811    0.4129 C   0  0  0  0  0  0  0  0  0  0  0  0
   -8.5611    0.6067    0.6679 C   0  0  0  0  0  0  0  0  0  0  0  0
   -9.8972    0.9815    0.4767 C   0  0  0  0  0  0  0  0  0  0  0  0
  -10.9940   -0.0229    0.7358 C   0  0  0  0  0  0  0  0  0  0  0  0
  -11.2879   -0.1372    2.0594 F   0  0  0  0  0  0  0  0  0  0  0  0
  -10.6708   -1.2765    0.3110 F   0  0  0  0  0  0  0  0  0  0  0  0
  -12.1652    0.2917    0.1165 F   0  0  0  0  0  0  0  0  0  0  0  0
  -10.1723    2.2905    0.0650 C   0  0  0  0  0  0  0  0  0  0  0  0
   -9.1304    3.2007   -0.1837 C   0  0  0  0  0  0  0  0  0  0  0  0
   -9.4465    4.6165   -0.6146 C   0  0  0  0  0  0  0  0  0  0  0  0
   -9.5634    5.4623    0.4455 F   0  0  0  0  0  0  0  0  0  0  0  0
  -10.6167    4.7181   -1.3054 F   0  0  0  0  0  0  0  0  0  0  0  0
   -8.4888    5.1531   -1.4201 F   0  0  0  0  0  0  0  0  0  0  0  0
   -7.7941    2.7849   -0.0033 C   0  0  0  0  0  0  0  0  0  0  0  0
   -5.7848   -0.3043    0.0892 C   0  0  0  0  0  0  0  0  0  0  0  0
   -4.5416   -0.8723    0.3278 C   0  0  0  0  0  0  0  0  0  0  0  0
   -4.0685   -2.1098   -0.2975 C   0  0  0  0  0  0  0  0  0  0  0  0
   -2.7847   -2.0771   -0.8642 C   0  0  0  0  0  0  0  0  0  0  0  0
   -2.1135   -3.2127   -1.2983 C   0  0  0  0  0  0  0  0  0  0  0  0
   -0.6475   -3.0496   -1.6649 C   0  0  0  0  0  0  0  0  0  0  0  0
   -0.1882   -4.1115   -2.3935 F   0  0  0  0  0  0  0  0  0  0  0  0
   -0.3942   -1.9503   -2.4244 F   0  0  0  0  0  0  0  0  0  0  0  0
    0.1636   -2.9704   -0.5766 F   0  0  0  0  0  0  0  0  0  0  0  0
   -2.8302   -4.4205   -1.3092 C   0  0  0  0  0  0  0  0  0  0  0  0
   -4.1776   -4.4739   -0.8639 C   0  0  0  0  0  0  0  0  0  0  0  0
   -4.9975   -5.7507   -0.9672 C   0  0  0  0  0  0  0  0  0  0  0  0
   -4.2881   -6.8587   -0.6146 F   0  0  0  0  0  0  0  0  0  0  0  0
   -6.1081   -5.7481   -0.1778 F   0  0  0  0  0  0  0  0  0  0  0  0
   -5.4379   -5.9738   -2.2350 F   0  0  0  0  0  0  0  0  0  0  0  0
   -4.7735   -3.3110   -0.3343 C   0  0  0  0  0  0  0  0  0  0  0  0
   -3.6288   -0.1478    1.1050 C   0  0  0  0  0  0  0  0  0  0  0  0
   -2.7995    2.8830    2.9517 C   0  0  0  0  0  0  0  0  0  0  0  0
   -1.7509    3.6725    3.4318 C   0  0  0  0  0  0  0  0  0  0  0  0
   -0.4766    3.6264    2.8079 C   0  0  0  0  0  0  0  0  0  0  0  0
    0.5389    4.4210    3.4000 C   0  0  0  0  0  0  0  0  0  0  0  0
    0.3043    5.2468    4.5027 C   0  0  0  0  0  0  0  0  0  0  0  0
   -0.9595    5.2983    5.0665 C   0  0  0  0  0  0  0  0  0  0  0  0
   -1.9783    4.5122    4.5361 C   0  0  0  0  0  0  0  0  0  0  0  0
   -0.1935   -2.0333    1.5082 H   0  0  0  0  0  0  0  0  0  0  0  0
    2.6543   -0.0384   -2.1408 H   0  0  0  0  0  0  0  0  0  0  0  0
    1.8046   -2.4532   -2.5095 H   0  0  0  0  0  0  0  0  0  0  0  0
    3.2240   -4.7894   -5.8357 H   0  0  0  0  0  0  0  0  0  0  0  0
    5.9954   -2.4672   -3.5084 H   0  0  0  0  0  0  0  0  0  0  0  0
    5.8784   -2.6419   -1.0263 H   0  0  0  0  0  0  0  0  0  0  0  0
    6.2986   -3.4382    1.1537 H   0  0  0  0  0  0  0  0  0  0  0  0
    9.7474   -2.3040    3.4528 H   0  0  0  0  0  0  0  0  0  0  0  0
    7.4247    0.7130    1.4480 H   0  0  0  0  0  0  0  0  0  0  0  0
    4.9854    0.8236    1.3602 H   0  0  0  0  0  0  0  0  0  0  0  0
    4.3326    2.9979   -1.1852 H   0  0  0  0  0  0  0  0  0  0  0  0
   -0.2864    5.3631    0.7564 H   0  0  0  0  0  0  0  0  0  0  0  0
    0.5878    7.4157   -0.2030 H   0  0  0  0  0  0  0  0  0  0  0  0
    2.7905    7.4322   -1.3471 H   0  0  0  0  0  0  0  0  0  0  0  0
    4.0864    5.3567   -1.5355 H   0  0  0  0  0  0  0  0  0  0  0  0
   -5.2659    2.7737    1.4541 H   0  0  0  0  0  0  0  0  0  0  0  0
   -8.3569   -0.4064    1.0209 H   0  0  0  0  0  0  0  0  0  0  0  0
  -11.2082    2.6058   -0.0730 H   0  0  0  0  0  0  0  0  0  0  0  0
   -6.9907    3.4914   -0.2153 H   0  0  0  0  0  0  0  0  0  0  0  0
   -6.5117   -0.8563   -0.5038 H   0  0  0  0  0  0  0  0  0  0  0  0
   -2.2694   -1.1204   -0.9409 H   0  0  0  0  0  0  0  0  0  0  0  0
   -2.3475   -5.3283   -1.6734 H   0  0  0  0  0  0  0  0  0  0  0  0
   -5.7852   -3.3574    0.0666 H   0  0  0  0  0  0  0  0  0  0  0  0
   -2.7081   -0.6374    1.4019 H   0  0  0  0  0  0  0  0  0  0  0  0
   -3.7752    2.9510    3.4323 H   0  0  0  0  0  0  0  0  0  0  0  0
    1.5549    4.3973    3.0095 H   0  0  0  0  0  0  0  0  0  0  0  0
    1.1146    5.8410    4.9170 H   0  0  0  0  0  0  0  0  0  0  0  0
   -1.1519    5.9369    5.9243 H   0  0  0  0  0  0  0  0  0  0  0  0
   -2.9599    4.5537    5.0052 H   0  0  0  0  0  0  0  0  0  0  0  0
  1  2  2  0  0  0  0
  2  4  1  0  0  0  0
  2  3  1  0  0  0  0
  5 48  1  0  0  0  0
  5  4  1  0  0  0  0
  6  5  2  0  0  0  0
  7  6  1  0  0  0  0
  7 40  2  0  0  0  0
  8  7  1  0  0  0  0
  9  8  2  0  0  0  0
  9 24  1  0  0  0  0
 10  9  1  0  0  0  0
 11 10  1  0  0  0  0
 11 96  1  0  0  0  0
 12 11  2  0  0  0  0
 13 12  1  0  0  0  0
 13 14  1  0  0  0  0
 13 15  1  0  0  0  0
 16 13  1  0  0  0  0
 17 18  2  0  0  0  0
 17 12  1  0  0  0  0
 18 23  1  0  0  0  0
 19 22  1  0  0  0  0
 19 18  1  0  0  0  0
 20 19  1  0  0  0  0
 21 19  1  0  0  0  0
 23 98  1  0  0  0  0
 23 10  2  0  0  0  0
 24 25  2  0  0  0  0
 25 40  1  0  0  0  0
 25 26  1  0  0  0  0
 26 27  2  0  0  0  0
 26 39  1  0  0  0  0
 27 28  1  0  0  0  0
 28 29  1  0  0  0  0
 28 33  2  0  0  0  0
 29 31  1  0  0  0  0
 29 32  1  0  0  0  0
 30 29  1  0  0  0  0
 33101  1  0  0  0  0
 34 33  1  0  0  0  0
 34 35  1  0  0  0  0
 35 38  1  0  0  0  0
 35 37  1  0  0  0  0
 36 35  1  0  0  0  0
 39 34  2  0  0  0  0
 40103  1  0  0  0  0
 41 42  2  0  0  0  0
 41  6  1  0  0  0  0
 42 43  1  0  0  0  0
 43 44  1  0  0  0  0
 43 48  2  0  0  0  0
 44105  1  0  0  0  0
 45106  1  0  0  0  0
 45 44  2  0  0  0  0
 46 45  1  0  0  0  0
 47 46  2  0  0  0  0
 47 42  1  0  0  0  0
 48 49  1  0  0  0  0
 49 89  1  0  0  0  0
 50 49  2  0  0  0  0
 50 52  1  0  0  0  0
 51  2  1  0  0  0  0
 51 50  1  0  0  0  0
 52 87  2  0  0  0  0
 53 52  1  0  0  0  0
 54 53  1  0  0  0  0
 54109  1  0  0  0  0
 55 54  2  0  0  0  0
 56 55  1  0  0  0  0
 56 57  2  0  0  0  0
 57110  1  0  0  0  0
 58 57  1  0  0  0  0
 58 59  1  0  0  0  0
 59 60  1  0  0  0  0
 61 59  1  0  0  0  0
 62 59  1  0  0  0  0
 63 58  2  0  0  0  0
 64 69  2  0  0  0  0
 64 63  1  0  0  0  0
 65 64  1  0  0  0  0
 65 66  1  0  0  0  0
 67 65  1  0  0  0  0
 68 65  1  0  0  0  0
 69 56  1  0  0  0  0
 70 71  2  0  0  0  0
 70 55  1  0  0  0  0
 71 86  1  0  0  0  0
 72 71  1  0  0  0  0
 73 72  2  0  0  0  0
 74 73  1  0  0  0  0
 75 74  1  0  0  0  0
 75 78  1  0  0  0  0
 76 75  1  0  0  0  0
 77 75  1  0  0  0  0
 79 74  2  0  0  0  0
 79 80  1  0  0  0  0
 80 85  2  0  0  0  0
 81 80  1  0  0  0  0
 81 82  1  0  0  0  0
 81 83  1  0  0  0  0
 84 81  1  0  0  0  0
 85 72  1  0  0  0  0
 85116  1  0  0  0  0
 86117  1  0  0  0  0
 86 53  2  0  0  0  0
 87 88  1  0  0  0  0
 87118  1  0  0  0  0
 88 93  2  0  0  0  0
 89 90  2  0  0  0  0
 89 88  1  0  0  0  0
 90 91  1  0  0  0  0
 91120  1  0  0  0  0
 91 92  2  0  0  0  0
 92121  1  0  0  0  0
 93122  1  0  0  0  0
 93 92  1  0  0  0  0
 94  3  1  0  0  0  0
 95  8  1  0  0  0  0
 97 17  1  0  0  0  0
 99 24  1  0  0  0  0
100 27  1  0  0  0  0
102 39  1  0  0  0  0
104 41  1  0  0  0  0
107 46  1  0  0  0  0
108 47  1  0  0  0  0
111 63  1  0  0  0  0
112 69  1  0  0  0  0
113 70  1  0  0  0  0
114 73  1  0  0  0  0
115 79  1  0  0  0  0
119 90  1  0  0  0  0
M  END
$$$$
