O=P1(O)OC2=C([Si](C3=CC=C(C(C)(C)C)C=C3)(C4=CC=C(C(C)(C)C)C=C4)C5=CC=C(C(C)(C)C)C=C5)C=C6C(CCCC6)=C2C7=C(O1)C([Si](C8=CC=C(C(C)(C)C)C=C8)(C9=CC=C(C(C)(C)C)C=C9)C%10=CC=C(C(C)(C)C)C=C%10)=CC%11=C7CCCC%11
 OpenBabel09032010373D

184194  0  0  0  0  0  0  0  0999 V2000
   -0.8151   -1.9036   -0.7444 O   0  0  0  0  0  0  0  0  0  0  0  0
   -0.0986   -0.6384   -0.3891 P   0  0  0  0  0  0  0  0  0  0  0  0
    0.8329   -0.1141   -1.5928 O   0  0  0  0  0  0  0  0  0  0  0  0
   -1.0352    0.6524   -0.1388 O   0  0  0  0  0  0  0  0  0  0  0  0
   -1.7370    0.7087    1.0337 C   0  0  0  0  0  0  0  0  0  0  0  0
   -3.1404    0.6261    0.9932 C   0  0  0  0  0  0  0  0  0  0  0  0
   -4.1712    0.5156   -0.5773 Si  0  0  0  0  0  0  0  0  0  0  0  0
   -3.1236    0.5072   -2.1295 C   0  0  0  0  0  0  0  0  0  0  0  0
   -2.8751   -0.6821   -2.8372 C   0  0  0  0  0  0  0  0  0  0  0  0
   -2.0719   -0.7042   -3.9856 C   0  0  0  0  0  0  0  0  0  0  0  0
   -1.4631    0.4582   -4.4808 C   0  0  0  0  0  0  0  0  0  0  0  0
   -0.5927    0.3993   -5.7470 C   0  0  0  0  0  0  0  0  0  0  0  0
   -0.0088    1.7672   -6.1666 C   0  0  0  0  0  0  0  0  0  0  0  0
    0.5987   -0.5543   -5.5128 C   0  0  0  0  0  0  0  0  0  0  0  0
   -1.4339   -0.1206   -6.9329 C   0  0  0  0  0  0  0  0  0  0  0  0
   -1.6935    1.6414   -3.7677 C   0  0  0  0  0  0  0  0  0  0  0  0
   -2.5149    1.6696   -2.6288 C   0  0  0  0  0  0  0  0  0  0  0  0
   -5.1822   -1.0584   -0.5596 C   0  0  0  0  0  0  0  0  0  0  0  0
   -5.0408   -2.0302    0.4438 C   0  0  0  0  0  0  0  0  0  0  0  0
   -5.7853   -3.2191    0.4292 C   0  0  0  0  0  0  0  0  0  0  0  0
   -6.6976   -3.5001   -0.5956 C   0  0  0  0  0  0  0  0  0  0  0  0
   -7.5243   -4.7952   -0.6433 C   0  0  0  0  0  0  0  0  0  0  0  0
   -9.0297   -4.4511   -0.6556 C   0  0  0  0  0  0  0  0  0  0  0  0
   -7.1740   -5.5867   -1.9217 C   0  0  0  0  0  0  0  0  0  0  0  0
   -7.2821   -5.7360    0.5587 C   0  0  0  0  0  0  0  0  0  0  0  0
   -6.8237   -2.5407   -1.6134 C   0  0  0  0  0  0  0  0  0  0  0  0
   -6.0810   -1.3529   -1.6001 C   0  0  0  0  0  0  0  0  0  0  0  0
   -5.2653    2.0406   -0.5518 C   0  0  0  0  0  0  0  0  0  0  0  0
   -6.6452    2.0013   -0.7988 C   0  0  0  0  0  0  0  0  0  0  0  0
   -7.4287    3.1650   -0.7650 C   0  0  0  0  0  0  0  0  0  0  0  0
   -6.8754    4.4233   -0.4749 C   0  0  0  0  0  0  0  0  0  0  0  0
   -7.7670    5.6760   -0.4498 C   0  0  0  0  0  0  0  0  0  0  0  0
   -7.0029    6.9795   -0.1250 C   0  0  0  0  0  0  0  0  0  0  0  0
   -8.8645    5.5100    0.6232 C   0  0  0  0  0  0  0  0  0  0  0  0
   -8.4313    5.8690   -1.8303 C   0  0  0  0  0  0  0  0  0  0  0  0
   -5.5011    4.4627   -0.2107 C   0  0  0  0  0  0  0  0  0  0  0  0
   -4.7163    3.3003   -0.2447 C   0  0  0  0  0  0  0  0  0  0  0  0
   -3.8020    0.6616    2.2346 C   0  0  0  0  0  0  0  0  0  0  0  0
   -3.1027    0.6971    3.4510 C   0  0  0  0  0  0  0  0  0  0  0  0
   -1.6946    0.7785    3.4470 C   0  0  0  0  0  0  0  0  0  0  0  0
   -0.9296    0.6482    4.7564 C   0  0  0  0  0  0  0  0  0  0  0  0
   -1.7626    0.0731    5.9012 C   0  0  0  0  0  0  0  0  0  0  0  0
   -3.0900    0.8081    5.9925 C   0  0  0  0  0  0  0  0  0  0  0  0
   -3.9043    0.5688    4.7262 C   0  0  0  0  0  0  0  0  0  0  0  0
   -0.9862    0.9050    2.2165 C   0  0  0  0  0  0  0  0  0  0  0  0
    0.4079    1.2542    2.1319 C   0  0  0  0  0  0  0  0  0  0  0  0
    1.3558    0.4035    1.4919 C   0  0  0  0  0  0  0  0  0  0  0  0
    0.8968   -0.7351    0.8765 O   0  0  0  0  0  0  0  0  0  0  0  0
    2.7450    0.6370    1.5004 C   0  0  0  0  0  0  0  0  0  0  0  0
    4.0408   -0.4955    0.7506 Si  0  0  0  0  0  0  0  0  0  0  0  0
    5.5080   -0.4739    1.9332 C   0  0  0  0  0  0  0  0  0  0  0  0
    6.8320   -0.3409    1.4922 C   0  0  0  0  0  0  0  0  0  0  0  0
    7.9009   -0.3120    2.3984 C   0  0  0  0  0  0  0  0  0  0  0  0
    7.7004   -0.4107    3.7859 C   0  0  0  0  0  0  0  0  0  0  0  0
    8.8999   -0.3702    4.7465 C   0  0  0  0  0  0  0  0  0  0  0  0
    9.8592   -1.5378    4.4292 C   0  0  0  0  0  0  0  0  0  0  0  0
    8.5108   -0.4915    6.2373 C   0  0  0  0  0  0  0  0  0  0  0  0
    9.6543    0.9666    4.5793 C   0  0  0  0  0  0  0  0  0  0  0  0
    6.3781   -0.5415    4.2273 C   0  0  0  0  0  0  0  0  0  0  0  0
    5.3075   -0.5722    3.3233 C   0  0  0  0  0  0  0  0  0  0  0  0
    3.4693   -2.2545    0.5461 C   0  0  0  0  0  0  0  0  0  0  0  0
    2.9240   -2.7113   -0.6681 C   0  0  0  0  0  0  0  0  0  0  0  0
    2.4870   -4.0339   -0.8341 C   0  0  0  0  0  0  0  0  0  0  0  0
    2.5684   -4.9629    0.2088 C   0  0  0  0  0  0  0  0  0  0  0  0
    2.0919   -6.4179    0.0688 C   0  0  0  0  0  0  0  0  0  0  0  0
    3.2753   -7.3780    0.3177 C   0  0  0  0  0  0  0  0  0  0  0  0
    1.5153   -6.7559   -1.3248 C   0  0  0  0  0  0  0  0  0  0  0  0
    0.9810   -6.7025    1.1028 C   0  0  0  0  0  0  0  0  0  0  0  0
    3.1140   -4.5112    1.4217 C   0  0  0  0  0  0  0  0  0  0  0  0
    3.5541   -3.1909    1.5875 C   0  0  0  0  0  0  0  0  0  0  0  0
    4.5755    0.1837   -0.9100 C   0  0  0  0  0  0  0  0  0  0  0  0
    4.1676    1.4449   -1.3717 C   0  0  0  0  0  0  0  0  0  0  0  0
    4.5819    1.9407   -2.6176 C   0  0  0  0  0  0  0  0  0  0  0  0
    5.4180    1.1984   -3.4624 C   0  0  0  0  0  0  0  0  0  0  0  0
    5.8894    1.7133   -4.8321 C   0  0  0  0  0  0  0  0  0  0  0  0
    7.4318    1.7804   -4.8591 C   0  0  0  0  0  0  0  0  0  0  0  0
    5.3650    3.1240   -5.1835 C   0  0  0  0  0  0  0  0  0  0  0  0
    5.4033    0.7560   -5.9417 C   0  0  0  0  0  0  0  0  0  0  0  0
    5.8190   -0.0678   -3.0056 C   0  0  0  0  0  0  0  0  0  0  0  0
    5.4078   -0.5644   -1.7620 C   0  0  0  0  0  0  0  0  0  0  0  0
    3.1771    1.8331    2.1050 C   0  0  0  0  0  0  0  0  0  0  0  0
    2.2836    2.7657    2.6481 C   0  0  0  0  0  0  0  0  0  0  0  0
    0.8994    2.4998    2.6279 C   0  0  0  0  0  0  0  0  0  0  0  0
   -0.0691    3.6000    3.0486 C   0  0  0  0  0  0  0  0  0  0  0  0
    0.5526    4.9954    3.0874 C   0  0  0  0  0  0  0  0  0  0  0  0
    1.8514    4.9545    3.8739 C   0  0  0  0  0  0  0  0  0  0  0  0
    2.8605    4.0679    3.1556 C   0  0  0  0  0  0  0  0  0  0  0  0
    0.3221   -0.1360   -2.4270 H   0  0  0  0  0  0  0  0  0  0  0  0
   -3.2880   -1.6350   -2.5015 H   0  0  0  0  0  0  0  0  0  0  0  0
   -1.9281   -1.6629   -4.4809 H   0  0  0  0  0  0  0  0  0  0  0  0
    0.6392    2.1856   -5.3876 H   0  0  0  0  0  0  0  0  0  0  0  0
    0.5986    1.6756   -7.0751 H   0  0  0  0  0  0  0  0  0  0  0  0
   -0.8002    2.4952   -6.3800 H   0  0  0  0  0  0  0  0  0  0  0  0
    1.2556   -0.5889   -6.3899 H   0  0  0  0  0  0  0  0  0  0  0  0
    1.2019   -0.2291   -4.6568 H   0  0  0  0  0  0  0  0  0  0  0  0
    0.2742   -1.5817   -5.3148 H   0  0  0  0  0  0  0  0  0  0  0  0
   -0.8450   -0.1387   -7.8574 H   0  0  0  0  0  0  0  0  0  0  0  0
   -1.7994   -1.1399   -6.7666 H   0  0  0  0  0  0  0  0  0  0  0  0
   -2.3080    0.5182   -7.1065 H   0  0  0  0  0  0  0  0  0  0  0  0
   -1.2379    2.5793   -4.0704 H   0  0  0  0  0  0  0  0  0  0  0  0
   -2.6425    2.6274   -2.1274 H   0  0  0  0  0  0  0  0  0  0  0  0
   -4.3309   -1.9029    1.2597 H   0  0  0  0  0  0  0  0  0  0  0  0
   -5.6132   -3.9171    1.2442 H   0  0  0  0  0  0  0  0  0  0  0  0
   -9.3162   -3.8745   -1.5419 H   0  0  0  0  0  0  0  0  0  0  0  0
   -9.3063   -3.8598    0.2254 H   0  0  0  0  0  0  0  0  0  0  0  0
   -9.6430   -5.3599   -0.6534 H   0  0  0  0  0  0  0  0  0  0  0  0
   -6.1039   -5.8232   -1.9585 H   0  0  0  0  0  0  0  0  0  0  0  0
   -7.4192   -5.0308   -2.8333 H   0  0  0  0  0  0  0  0  0  0  0  0
   -7.7264   -6.5327   -1.9647 H   0  0  0  0  0  0  0  0  0  0  0  0
   -7.8987   -6.6398    0.4836 H   0  0  0  0  0  0  0  0  0  0  0  0
   -7.5360   -5.2505    1.5083 H   0  0  0  0  0  0  0  0  0  0  0  0
   -6.2373   -6.0637    0.6111 H   0  0  0  0  0  0  0  0  0  0  0  0
   -7.5008   -2.7067   -2.4486 H   0  0  0  0  0  0  0  0  0  0  0  0
   -6.2092   -0.6658   -2.4371 H   0  0  0  0  0  0  0  0  0  0  0  0
   -7.1576    1.0670   -1.0141 H   0  0  0  0  0  0  0  0  0  0  0  0
   -8.4939    3.0663   -0.9686 H   0  0  0  0  0  0  0  0  0  0  0  0
   -7.6785    7.8434   -0.1229 H   0  0  0  0  0  0  0  0  0  0  0  0
   -6.5334    6.9364    0.8646 H   0  0  0  0  0  0  0  0  0  0  0  0
   -6.2209    7.1839   -0.8656 H   0  0  0  0  0  0  0  0  0  0  0  0
   -9.5283    4.6650    0.4098 H   0  0  0  0  0  0  0  0  0  0  0  0
   -9.4948    6.4048    0.6857 H   0  0  0  0  0  0  0  0  0  0  0  0
   -8.4255    5.3413    1.6137 H   0  0  0  0  0  0  0  0  0  0  0  0
   -9.0878    5.0330   -2.0952 H   0  0  0  0  0  0  0  0  0  0  0  0
   -9.0455    6.7769   -1.8499 H   0  0  0  0  0  0  0  0  0  0  0  0
   -7.6775    5.9589   -2.6216 H   0  0  0  0  0  0  0  0  0  0  0  0
   -4.9968    5.3936    0.0335 H   0  0  0  0  0  0  0  0  0  0  0  0
   -3.6555    3.4053   -0.0150 H   0  0  0  0  0  0  0  0  0  0  0  0
   -4.8930    0.6126    2.2720 H   0  0  0  0  0  0  0  0  0  0  0  0
   -0.5574    1.6250    5.0711 H   0  0  0  0  0  0  0  0  0  0  0  0
   -0.0620   -0.0069    4.6118 H   0  0  0  0  0  0  0  0  0  0  0  0
   -1.2101    0.1702    6.8425 H   0  0  0  0  0  0  0  0  0  0  0  0
   -1.9388   -0.9980    5.7397 H   0  0  0  0  0  0  0  0  0  0  0  0
   -2.9097    1.8823    6.1255 H   0  0  0  0  0  0  0  0  0  0  0  0
   -3.6566    0.4669    6.8660 H   0  0  0  0  0  0  0  0  0  0  0  0
   -4.3236   -0.4450    4.7593 H   0  0  0  0  0  0  0  0  0  0  0  0
   -4.7442    1.2737    4.7076 H   0  0  0  0  0  0  0  0  0  0  0  0
    7.0711   -0.2479    0.4350 H   0  0  0  0  0  0  0  0  0  0  0  0
    8.9053   -0.2069    1.9927 H   0  0  0  0  0  0  0  0  0  0  0  0
   10.7073   -1.5525    5.1239 H   0  0  0  0  0  0  0  0  0  0  0  0
   10.2752   -1.4697    3.4181 H   0  0  0  0  0  0  0  0  0  0  0  0
    9.3455   -2.5032    4.5094 H   0  0  0  0  0  0  0  0  0  0  0  0
    9.3980   -0.4585    6.8812 H   0  0  0  0  0  0  0  0  0  0  0  0
    7.8549    0.3289    6.5513 H   0  0  0  0  0  0  0  0  0  0  0  0
    7.9977   -1.4378    6.4447 H   0  0  0  0  0  0  0  0  0  0  0  0
   10.0657    1.0872    3.5711 H   0  0  0  0  0  0  0  0  0  0  0  0
   10.4957    1.0359    5.2788 H   0  0  0  0  0  0  0  0  0  0  0  0
    8.9920    1.8197    4.7685 H   0  0  0  0  0  0  0  0  0  0  0  0
    6.1371   -0.6212    5.2837 H   0  0  0  0  0  0  0  0  0  0  0  0
    4.3024   -0.6692    3.7358 H   0  0  0  0  0  0  0  0  0  0  0  0
    2.8149   -2.0378   -1.5187 H   0  0  0  0  0  0  0  0  0  0  0  0
    2.0779   -4.3082   -1.8030 H   0  0  0  0  0  0  0  0  0  0  0  0
    4.0961   -7.1822   -0.3824 H   0  0  0  0  0  0  0  0  0  0  0  0
    2.9700   -8.4232    0.1898 H   0  0  0  0  0  0  0  0  0  0  0  0
    3.6789   -7.2845    1.3319 H   0  0  0  0  0  0  0  0  0  0  0  0
    2.2611   -6.6136   -2.1155 H   0  0  0  0  0  0  0  0  0  0  0  0
    0.6431   -6.1355   -1.5619 H   0  0  0  0  0  0  0  0  0  0  0  0
    1.1893   -7.8018   -1.3744 H   0  0  0  0  0  0  0  0  0  0  0  0
    0.5986   -7.7250    1.0008 H   0  0  0  0  0  0  0  0  0  0  0  0
    1.3363   -6.5953    2.1335 H   0  0  0  0  0  0  0  0  0  0  0  0
    0.1360   -6.0159    0.9730 H   0  0  0  0  0  0  0  0  0  0  0  0
    3.2057   -5.1859    2.2702 H   0  0  0  0  0  0  0  0  0  0  0  0
    3.9642   -2.9215    2.5586 H   0  0  0  0  0  0  0  0  0  0  0  0
    3.5098    2.0772   -0.7774 H   0  0  0  0  0  0  0  0  0  0  0  0
    4.2231    2.9266   -2.8997 H   0  0  0  0  0  0  0  0  0  0  0  0
    7.7935    2.1785   -5.8144 H   0  0  0  0  0  0  0  0  0  0  0  0
    7.8921    0.7949   -4.7285 H   0  0  0  0  0  0  0  0  0  0  0  0
    7.8124    2.4296   -4.0616 H   0  0  0  0  0  0  0  0  0  0  0  0
    5.7292    3.4475   -6.1660 H   0  0  0  0  0  0  0  0  0  0  0  0
    5.6986    3.8716   -4.4543 H   0  0  0  0  0  0  0  0  0  0  0  0
    4.2697    3.1494   -5.2222 H   0  0  0  0  0  0  0  0  0  0  0  0
    5.6973    1.1188   -6.9336 H   0  0  0  0  0  0  0  0  0  0  0  0
    5.8207   -0.2510   -5.8325 H   0  0  0  0  0  0  0  0  0  0  0  0
    4.3109    0.6622   -5.9310 H   0  0  0  0  0  0  0  0  0  0  0  0
    6.4631   -0.6976   -3.6157 H   0  0  0  0  0  0  0  0  0  0  0  0
    5.7521   -1.5577   -1.4713 H   0  0  0  0  0  0  0  0  0  0  0  0
    4.2412    2.0820    2.1248 H   0  0  0  0  0  0  0  0  0  0  0  0
   -0.4617    3.3851    4.0444 H   0  0  0  0  0  0  0  0  0  0  0  0
   -0.9160    3.6369    2.3532 H   0  0  0  0  0  0  0  0  0  0  0  0
    0.7421    5.3544    2.0680 H   0  0  0  0  0  0  0  0  0  0  0  0
   -0.1492    5.6975    3.5515 H   0  0  0  0  0  0  0  0  0  0  0  0
    2.2614    5.9639    3.9893 H   0  0  0  0  0  0  0  0  0  0  0  0
    1.6620    4.5670    4.8830 H   0  0  0  0  0  0  0  0  0  0  0  0
    3.6965    3.8616    3.8348 H   0  0  0  0  0  0  0  0  0  0  0  0
    3.2626    4.6159    2.2936 H   0  0  0  0  0  0  0  0  0  0  0  0
  1  2  2  0  0  0  0
  2  4  1  0  0  0  0
  2 48  1  0  0  0  0
  3  2  1  0  0  0  0
  4  5  1  0  0  0  0
  5 45  1  0  0  0  0
  6  5  2  0  0  0  0
  6 38  1  0  0  0  0
  7 18  1  0  0  0  0
  7 28  1  0  0  0  0
  7  6  1  0  0  0  0
  8  7  1  0  0  0  0
  9 89  1  0  0  0  0
  9  8  2  0  0  0  0
 10  9  1  0  0  0  0
 11 10  2  0  0  0  0
 11 16  1  0  0  0  0
 12 14  1  0  0  0  0
 12 11  1  0  0  0  0
 13 12  1  0  0  0  0
 13 91  1  0  0  0  0
 14 96  1  0  0  0  0
 14 95  1  0  0  0  0
 15 98  1  0  0  0  0
 15 12  1  0  0  0  0
 16 17  2  0  0  0  0
 17  8  1  0  0  0  0
 17101  1  0  0  0  0
 18 19  2  0  0  0  0
 19102  1  0  0  0  0
 20 19  1  0  0  0  0
 20103  1  0  0  0  0
 21 20  2  0  0  0  0
 22 21  1  0  0  0  0
 22 25  1  0  0  0  0
 23106  1  0  0  0  0
 23 22  1  0  0  0  0
 23105  1  0  0  0  0
 24 22  1  0  0  0  0
 25112  1  0  0  0  0
 25111  1  0  0  0  0
 26 27  2  0  0  0  0
 26 21  1  0  0  0  0
 27 18  1  0  0  0  0
 28 37  2  0  0  0  0
 29 30  2  0  0  0  0
 29 28  1  0  0  0  0
 30 31  1  0  0  0  0
 31 32  1  0  0  0  0
 31 36  2  0  0  0  0
 32 33  1  0  0  0  0
 32 34  1  0  0  0  0
 33117  1  0  0  0  0
 33118  1  0  0  0  0
 34121  1  0  0  0  0
 34122  1  0  0  0  0
 35 32  1  0  0  0  0
 36126  1  0  0  0  0
 37 36  1  0  0  0  0
 37127  1  0  0  0  0
 38128  1  0  0  0  0
 38 39  2  0  0  0  0
 39 44  1  0  0  0  0
 40 39  1  0  0  0  0
 40 41  1  0  0  0  0
 41129  1  0  0  0  0
 41 42  1  0  0  0  0
 42 43  1  0  0  0  0
 42131  1  0  0  0  0
 43133  1  0  0  0  0
 43134  1  0  0  0  0
 44135  1  0  0  0  0
 44 43  1  0  0  0  0
 45 40  2  0  0  0  0
 46 45  1  0  0  0  0
 46 83  2  0  0  0  0
 47 49  2  0  0  0  0
 47 46  1  0  0  0  0
 48 47  1  0  0  0  0
 49 81  1  0  0  0  0
 50 49  1  0  0  0  0
 50 51  1  0  0  0  0
 51 60  1  0  0  0  0
 52 51  2  0  0  0  0
 52 53  1  0  0  0  0
 53 54  2  0  0  0  0
 54 59  1  0  0  0  0
 54 55  1  0  0  0  0
 55 57  1  0  0  0  0
 56141  1  0  0  0  0
 56 55  1  0  0  0  0
 56139  1  0  0  0  0
 57144  1  0  0  0  0
 57143  1  0  0  0  0
 57142  1  0  0  0  0
 58 55  1  0  0  0  0
 58147  1  0  0  0  0
 58146  1  0  0  0  0
 59148  1  0  0  0  0
 60149  1  0  0  0  0
 60 59  2  0  0  0  0
 61 50  1  0  0  0  0
 61 70  2  0  0  0  0
 62 61  1  0  0  0  0
 63 62  2  0  0  0  0
 63 64  1  0  0  0  0
 64 69  2  0  0  0  0
 65 64  1  0  0  0  0
 65 66  1  0  0  0  0
 65 68  1  0  0  0  0
 66154  1  0  0  0  0
 67 65  1  0  0  0  0
 68159  1  0  0  0  0
 69 70  1  0  0  0  0
 69161  1  0  0  0  0
 70162  1  0  0  0  0
 71 50  1  0  0  0  0
 72 71  1  0  0  0  0
 72163  1  0  0  0  0
 73 72  2  0  0  0  0
 74 79  2  0  0  0  0
 74 73  1  0  0  0  0
 75 74  1  0  0  0  0
 76 75  1  0  0  0  0
 76166  1  0  0  0  0
 76167  1  0  0  0  0
 77 75  1  0  0  0  0
 77169  1  0  0  0  0
 78173  1  0  0  0  0
 78172  1  0  0  0  0
 78 75  1  0  0  0  0
 79 80  1  0  0  0  0
 80175  1  0  0  0  0
 80 71  2  0  0  0  0
 81176  1  0  0  0  0
 81 82  2  0  0  0  0
 82 87  1  0  0  0  0
 83 82  1  0  0  0  0
 83 84  1  0  0  0  0
 84 85  1  0  0  0  0
 84177  1  0  0  0  0
 85180  1  0  0  0  0
 85 86  1  0  0  0  0
 86181  1  0  0  0  0
 86182  1  0  0  0  0
 87183  1  0  0  0  0
 87 86  1  0  0  0  0
 88  3  1  0  0  0  0
 90 10  1  0  0  0  0
 92 13  1  0  0  0  0
 93 13  1  0  0  0  0
 94 14  1  0  0  0  0
 97 15  1  0  0  0  0
 99 15  1  0  0  0  0
100 16  1  0  0  0  0
104 23  1  0  0  0  0
107 24  1  0  0  0  0
108 24  1  0  0  0  0
109 24  1  0  0  0  0
110 25  1  0  0  0  0
113 26  1  0  0  0  0
114 27  1  0  0  0  0
115 29  1  0  0  0  0
116 30  1  0  0  0  0
119 33  1  0  0  0  0
120 34  1  0  0  0  0
123 35  1  0  0  0  0
124 35  1  0  0  0  0
125 35  1  0  0  0  0
130 41  1  0  0  0  0
132 42  1  0  0  0  0
136 44  1  0  0  0  0
137 52  1  0  0  0  0
138 53  1  0  0  0  0
140 56  1  0  0  0  0
145 58  1  0  0  0  0
150 62  1  0  0  0  0
151 63  1  0  0  0  0
152 66  1  0  0  0  0
153 66  1  0  0  0  0
155 67  1  0  0  0  0
156 67  1  0  0  0  0
157 67  1  0  0  0  0
158 68  1  0  0  0  0
160 68  1  0  0  0  0
164 73  1  0  0  0  0
165 76  1  0  0  0  0
168 77  1  0  0  0  0
170 77  1  0  0  0  0
171 78  1  0  0  0  0
174 79  1  0  0  0  0
178 84  1  0  0  0  0
179 85  1  0  0  0  0
184 87  1  0  0  0  0
M  END
$$$$
