O=P1(O)OC2=C(Br)C=C3C(C=CC=C3)=C2C4=C(O1)C(Br)=CC5=CC=CC=C54
 OpenBabel09032010373D

 38 42  0  0  0  0  0  0  0  0999 V2000
   -2.0505    4.2882   -0.7811 O   0  0  0  0  0  0  0  0  0  0  0  0
   -0.7937    3.5513   -0.4409 P   0  0  0  0  0  0  0  0  0  0  0  0
    0.4177    4.5814   -0.2047 O   0  0  0  0  0  0  0  0  0  0  0  0
   -0.2525    2.5527   -1.5808 O   0  0  0  0  0  0  0  0  0  0  0  0
    0.7599    1.6753   -1.2696 C   0  0  0  0  0  0  0  0  0  0  0  0
    1.9747    1.8367   -1.9416 C   0  0  0  0  0  0  0  0  0  0  0  0
    2.2373    3.2265   -3.2082 Br  0  0  0  0  0  0  0  0  0  0  0  0
    3.0260    0.9660   -1.6961 C   0  0  0  0  0  0  0  0  0  0  0  0
    2.8893   -0.0557   -0.7554 C   0  0  0  0  0  0  0  0  0  0  0  0
    1.6577   -0.2342   -0.0654 C   0  0  0  0  0  0  0  0  0  0  0  0
    1.6467   -1.2355    0.9396 C   0  0  0  0  0  0  0  0  0  0  0  0
    2.7497   -2.0532    1.2014 C   0  0  0  0  0  0  0  0  0  0  0  0
    3.9189   -1.8867    0.4777 C   0  0  0  0  0  0  0  0  0  0  0  0
    3.9894   -0.8886   -0.4894 C   0  0  0  0  0  0  0  0  0  0  0  0
    0.5242    0.6123   -0.3619 C   0  0  0  0  0  0  0  0  0  0  0  0
   -0.7942    0.4143    0.2086 C   0  0  0  0  0  0  0  0  0  0  0  0
   -1.4381    1.4777    0.8846 C   0  0  0  0  0  0  0  0  0  0  0  0
   -0.8307    2.7095    0.9308 O   0  0  0  0  0  0  0  0  0  0  0  0
   -2.6473    1.3208    1.5653 C   0  0  0  0  0  0  0  0  0  0  0  0
   -3.4458    2.7539    2.5184 Br  0  0  0  0  0  0  0  0  0  0  0  0
   -3.2912    0.0926    1.5584 C   0  0  0  0  0  0  0  0  0  0  0  0
   -2.7528   -0.9812    0.8466 C   0  0  0  0  0  0  0  0  0  0  0  0
   -3.4543   -2.1982    0.8130 C   0  0  0  0  0  0  0  0  0  0  0  0
   -2.9836   -3.2796    0.0742 C   0  0  0  0  0  0  0  0  0  0  0  0
   -1.8112   -3.1509   -0.6525 C   0  0  0  0  0  0  0  0  0  0  0  0
   -1.1009   -1.9476   -0.6204 C   0  0  0  0  0  0  0  0  0  0  0  0
   -1.5200   -0.8338    0.1510 C   0  0  0  0  0  0  0  0  0  0  0  0
    0.0611    5.4794   -0.0739 H   0  0  0  0  0  0  0  0  0  0  0  0
    3.9678    1.1005   -2.2243 H   0  0  0  0  0  0  0  0  0  0  0  0
    0.7640   -1.3898    1.5578 H   0  0  0  0  0  0  0  0  0  0  0  0
    2.6890   -2.8132    1.9763 H   0  0  0  0  0  0  0  0  0  0  0  0
    4.7809   -2.5180    0.6760 H   0  0  0  0  0  0  0  0  0  0  0  0
    4.9258   -0.7569   -1.0292 H   0  0  0  0  0  0  0  0  0  0  0  0
   -4.2335   -0.0217    2.0905 H   0  0  0  0  0  0  0  0  0  0  0  0
   -4.3910   -2.3116    1.3563 H   0  0  0  0  0  0  0  0  0  0  0  0
   -3.5418   -4.2118    0.0530 H   0  0  0  0  0  0  0  0  0  0  0  0
   -1.4453   -3.9803   -1.2525 H   0  0  0  0  0  0  0  0  0  0  0  0
   -0.2022   -1.8904   -1.2322 H   0  0  0  0  0  0  0  0  0  0  0  0
  1  2  2  0  0  0  0
  2  3  1  0  0  0  0
  2 18  1  0  0  0  0
  3 28  1  0  0  0  0
  4  5  1  0  0  0  0
  4  2  1  0  0  0  0
  5 15  2  0  0  0  0
  6  8  2  0  0  0  0
  6  5  1  0  0  0  0
  7  6  1  0  0  0  0
  8  9  1  0  0  0  0
  9 14  2  0  0  0  0
  9 10  1  0  0  0  0
 10 11  2  0  0  0  0
 11 12  1  0  0  0  0
 11 30  1  0  0  0  0
 12 31  1  0  0  0  0
 13 32  1  0  0  0  0
 13 12  2  0  0  0  0
 14 13  1  0  0  0  0
 15 10  1  0  0  0  0
 15 16  1  0  0  0  0
 16 17  1  0  0  0  0
 17 18  1  0  0  0  0
 17 19  2  0  0  0  0
 19 20  1  0  0  0  0
 21 19  1  0  0  0  0
 21 34  1  0  0  0  0
 22 21  2  0  0  0  0
 23 22  1  0  0  0  0
 23 35  1  0  0  0  0
 24 23  2  0  0  0  0
 25 26  2  0  0  0  0
 25 24  1  0  0  0  0
 26 27  1  0  0  0  0
 27 16  2  0  0  0  0
 27 22  1  0  0  0  0
 29  8  1  0  0  0  0
 33 14  1  0  0  0  0
 36 24  1  0  0  0  0
 37 25  1  0  0  0  0
 38 26  1  0  0  0  0
M  END
$$$$
