O=P1(O)OC2=C(C3=C(C)C=C(C)C=C3C)C=C4C(C=CC=C4)=C2C5=C(O1)[C@@]([C@@]6=C(C)C=C(C)C=C6C)=CC7=C5C=CC=C7
 OpenBabel09032010383D

 76 82  0  0  0  0  0  0  0  0999 V2000
   -0.5962    2.5646   -1.2198 O   0  0  0  0  0  0  0  0  0  0  0  0
   -0.0207    1.6517   -0.1833 P   0  0  0  0  0  0  0  0  0  0  0  0
    0.7699    2.4799    0.9469 O   0  0  0  0  0  0  0  0  0  0  0  0
   -1.0599    0.7601    0.6633 O   0  0  0  0  0  0  0  0  0  0  0  0
   -1.5506   -0.3804    0.0669 C   0  0  0  0  0  0  0  0  0  0  0  0
   -2.9158   -0.3871   -0.2692 C   0  0  0  0  0  0  0  0  0  0  0  0
   -3.7990    0.7700   -0.0165 C   0  0  0  0  0  0  0  0  0  0  0  0
   -4.1220    1.6720   -1.0602 C   0  0  0  0  0  0  0  0  0  0  0  0
   -3.6119    1.4832   -2.4669 C   0  0  0  0  0  0  0  0  0  0  0  0
   -4.9807    2.7557   -0.8076 C   0  0  0  0  0  0  0  0  0  0  0  0
   -5.5030    2.9842    0.4673 C   0  0  0  0  0  0  0  0  0  0  0  0
   -6.4315    4.1359    0.7136 C   0  0  0  0  0  0  0  0  0  0  0  0
   -5.1927    2.0912    1.4950 C   0  0  0  0  0  0  0  0  0  0  0  0
   -4.3530    0.9867    1.2703 C   0  0  0  0  0  0  0  0  0  0  0  0
   -4.0508    0.0672    2.4265 C   0  0  0  0  0  0  0  0  0  0  0  0
   -3.4412   -1.5378   -0.8602 C   0  0  0  0  0  0  0  0  0  0  0  0
   -2.6337   -2.6396   -1.1510 C   0  0  0  0  0  0  0  0  0  0  0  0
   -1.2563   -2.6258   -0.8034 C   0  0  0  0  0  0  0  0  0  0  0  0
   -0.4949   -3.7460   -1.2249 C   0  0  0  0  0  0  0  0  0  0  0  0
   -1.0641   -4.8391   -1.8841 C   0  0  0  0  0  0  0  0  0  0  0  0
   -2.4205   -4.8444   -2.1647 C   0  0  0  0  0  0  0  0  0  0  0  0
   -3.1983   -3.7475   -1.8058 C   0  0  0  0  0  0  0  0  0  0  0  0
   -0.6915   -1.4940   -0.1088 C   0  0  0  0  0  0  0  0  0  0  0  0
    0.6617   -1.4614    0.4133 C   0  0  0  0  0  0  0  0  0  0  0  0
    1.5352   -0.3975    0.0768 C   0  0  0  0  0  0  0  0  0  0  0  0
    1.0874    0.6226   -0.7327 O   0  0  0  0  0  0  0  0  0  0  0  0
    2.8950   -0.3560    0.4394 C   0  0  0  0  0  0  0  0  0  0  0  0
    3.7803    0.7634    0.0501 C   0  0  0  0  0  0  0  0  0  0  0  0
    4.2859    0.8623   -1.2704 C   0  0  0  0  0  0  0  0  0  0  0  0
    3.9546   -0.1603   -2.3288 C   0  0  0  0  0  0  0  0  0  0  0  0
    5.0968    1.9525   -1.6303 C   0  0  0  0  0  0  0  0  0  0  0  0
    5.4386    2.9386   -0.7024 C   0  0  0  0  0  0  0  0  0  0  0  0
    6.3456    4.0680   -1.0923 C   0  0  0  0  0  0  0  0  0  0  0  0
    4.9771    2.8207    0.6100 C   0  0  0  0  0  0  0  0  0  0  0  0
    4.1408    1.7583    0.9951 C   0  0  0  0  0  0  0  0  0  0  0  0
    3.7013    1.6908    2.4373 C   0  0  0  0  0  0  0  0  0  0  0  0
    3.4048   -1.4107    1.1981 C   0  0  0  0  0  0  0  0  0  0  0  0
    2.5852   -2.4533    1.6356 C   0  0  0  0  0  0  0  0  0  0  0  0
    1.2104   -2.4799    1.2769 C   0  0  0  0  0  0  0  0  0  0  0  0
    0.4360   -3.5181    1.8558 C   0  0  0  0  0  0  0  0  0  0  0  0
    0.9904   -4.5065    2.6738 C   0  0  0  0  0  0  0  0  0  0  0  0
    2.3450   -4.4827    2.9616 C   0  0  0  0  0  0  0  0  0  0  0  0
    3.1351   -3.4572    2.4510 C   0  0  0  0  0  0  0  0  0  0  0  0
    1.3068    3.1776    0.5287 H   0  0  0  0  0  0  0  0  0  0  0  0
   -2.5666    1.1623   -2.4798 H   0  0  0  0  0  0  0  0  0  0  0  0
   -4.2228    0.7387   -2.9871 H   0  0  0  0  0  0  0  0  0  0  0  0
   -3.6580    2.4205   -3.0322 H   0  0  0  0  0  0  0  0  0  0  0  0
   -5.2373    3.4355   -1.6184 H   0  0  0  0  0  0  0  0  0  0  0  0
   -6.1900    4.9798    0.0587 H   0  0  0  0  0  0  0  0  0  0  0  0
   -6.3470    4.4925    1.7455 H   0  0  0  0  0  0  0  0  0  0  0  0
   -7.4655    3.8290    0.5288 H   0  0  0  0  0  0  0  0  0  0  0  0
   -5.6107    2.2556    2.4866 H   0  0  0  0  0  0  0  0  0  0  0  0
   -3.0070    0.1753    2.7363 H   0  0  0  0  0  0  0  0  0  0  0  0
   -4.6796    0.2959    3.2938 H   0  0  0  0  0  0  0  0  0  0  0  0
   -4.2495   -0.9748    2.1566 H   0  0  0  0  0  0  0  0  0  0  0  0
   -4.4989   -1.5534   -1.1218 H   0  0  0  0  0  0  0  0  0  0  0  0
    0.5797   -3.7783   -1.0539 H   0  0  0  0  0  0  0  0  0  0  0  0
   -0.4395   -5.6777   -2.1799 H   0  0  0  0  0  0  0  0  0  0  0  0
   -2.8712   -5.6894   -2.6778 H   0  0  0  0  0  0  0  0  0  0  0  0
   -4.2573   -3.7580   -2.0577 H   0  0  0  0  0  0  0  0  0  0  0  0
    2.9361   -0.0094   -2.6982 H   0  0  0  0  0  0  0  0  0  0  0  0
    4.6371   -0.0816   -3.1822 H   0  0  0  0  0  0  0  0  0  0  0  0
    4.0582   -1.1780   -1.9395 H   0  0  0  0  0  0  0  0  0  0  0  0
    5.4725    2.0283   -2.6496 H   0  0  0  0  0  0  0  0  0  0  0  0
    6.1279    4.9651   -0.5033 H   0  0  0  0  0  0  0  0  0  0  0  0
    6.2100    4.3319   -2.1465 H   0  0  0  0  0  0  0  0  0  0  0  0
    7.3895    3.7826   -0.9301 H   0  0  0  0  0  0  0  0  0  0  0  0
    5.2714    3.5669    1.3466 H   0  0  0  0  0  0  0  0  0  0  0  0
    2.6594    1.3717    2.5293 H   0  0  0  0  0  0  0  0  0  0  0  0
    4.3420    0.9964    2.9899 H   0  0  0  0  0  0  0  0  0  0  0  0
    3.7694    2.6739    2.9159 H   0  0  0  0  0  0  0  0  0  0  0  0
    4.4584   -1.3941    1.4751 H   0  0  0  0  0  0  0  0  0  0  0  0
   -0.6382   -3.5659    1.6849 H   0  0  0  0  0  0  0  0  0  0  0  0
    0.3556   -5.2864    3.0858 H   0  0  0  0  0  0  0  0  0  0  0  0
    2.7843   -5.2470    3.5966 H   0  0  0  0  0  0  0  0  0  0  0  0
    4.1922   -3.4396    2.7105 H   0  0  0  0  0  0  0  0  0  0  0  0
  1  2  2  0  0  0  0
  2  4  1  0  0  0  0
  2  3  1  0  0  0  0
  5  4  1  0  0  0  0
  6  7  1  0  0  0  0
  6  5  1  0  0  0  0
  7 14  2  0  0  0  0
  8 10  2  0  0  0  0
  8  7  1  0  0  0  0
  9  8  1  0  0  0  0
 10 11  1  0  0  0  0
 11 12  1  0  0  0  0
 11 13  2  0  0  0  0
 12 50  1  0  0  0  0
 13 52  1  0  0  0  0
 14 13  1  0  0  0  0
 14 15  1  0  0  0  0
 15 53  1  0  0  0  0
 15 54  1  0  0  0  0
 16  6  2  0  0  0  0
 17 16  1  0  0  0  0
 17 18  1  0  0  0  0
 18 23  1  0  0  0  0
 19 57  1  0  0  0  0
 19 18  2  0  0  0  0
 20 19  1  0  0  0  0
 21 20  2  0  0  0  0
 21 22  1  0  0  0  0
 22 17  2  0  0  0  0
 23  5  2  0  0  0  0
 23 24  1  0  0  0  0
 24 39  1  0  0  0  0
 25 24  2  0  0  0  0
 25 27  1  0  0  0  0
 26  2  1  0  0  0  0
 26 25  1  0  0  0  0
 27 37  2  0  0  0  0
 28 27  1  0  0  0  0
 28 35  2  0  0  0  0
 29 28  1  0  0  0  0
 30 63  1  0  0  0  0
 30 29  1  0  0  0  0
 31 29  2  0  0  0  0
 31 32  1  0  0  0  0
 32 34  2  0  0  0  0
 33 67  1  0  0  0  0
 33 32  1  0  0  0  0
 33 65  1  0  0  0  0
 34 35  1  0  0  0  0
 34 68  1  0  0  0  0
 35 36  1  0  0  0  0
 36 69  1  0  0  0  0
 36 71  1  0  0  0  0
 36 70  1  0  0  0  0
 37 72  1  0  0  0  0
 37 38  1  0  0  0  0
 38 43  1  0  0  0  0
 39 38  2  0  0  0  0
 39 40  1  0  0  0  0
 40 41  2  0  0  0  0
 41 42  1  0  0  0  0
 41 74  1  0  0  0  0
 42 75  1  0  0  0  0
 43 76  1  0  0  0  0
 43 42  2  0  0  0  0
 44  3  1  0  0  0  0
 45  9  1  0  0  0  0
 46  9  1  0  0  0  0
 47  9  1  0  0  0  0
 48 10  1  0  0  0  0
 49 12  1  0  0  0  0
 51 12  1  0  0  0  0
 55 15  1  0  0  0  0
 56 16  1  0  0  0  0
 58 20  1  0  0  0  0
 59 21  1  0  0  0  0
 60 22  1  0  0  0  0
 61 30  1  0  0  0  0
 62 30  1  0  0  0  0
 64 31  1  0  0  0  0
 66 33  1  0  0  0  0
 73 40  1  0  0  0  0
M  END
$$$$
