O=P1(O)OC2=C(C3=CC=C(C4=CC(C(F)(F)F)=CC(C(F)(F)F)=C4)C=C3)C=C5C(C=CC=C5)=C2C6=C(O1)C(C7=CC=C(C8=CC(C(F)(F)F)=CC(C(F)(F)F)=C8)C=C7)=CC9=C6C=CC=C9
 OpenBabel09032010373D

 90 98  0  0  0  0  0  0  0  0999 V2000
    1.2745   -0.5264    0.3589 O   0  0  0  0  0  0  0  0  0  0  0  0
    0.7313    0.2891   -0.7759 P   0  0  0  0  0  0  0  0  0  0  0  0
    0.7803   -0.4583   -2.2014 O   0  0  0  0  0  0  0  0  0  0  0  0
    1.5021    1.6794   -1.0583 O   0  0  0  0  0  0  0  0  0  0  0  0
    0.9661    2.6261   -1.9198 C   0  0  0  0  0  0  0  0  0  0  0  0
    1.7346    2.9558   -3.0675 C   0  0  0  0  0  0  0  0  0  0  0  0
    3.0363    2.3181   -3.2961 C   0  0  0  0  0  0  0  0  0  0  0  0
    4.1433    2.7098   -2.5299 C   0  0  0  0  0  0  0  0  0  0  0  0
    5.1741    1.8040   -2.2913 C   0  0  0  0  0  0  0  0  0  0  0  0
    5.0520    0.4942   -2.7799 C   0  0  0  0  0  0  0  0  0  0  0  0
    5.2769   -0.6076   -1.8321 C   0  0  0  0  0  0  0  0  0  0  0  0
    4.3400   -0.6603   -0.7832 C   0  0  0  0  0  0  0  0  0  0  0  0
    4.2057   -1.7485    0.0677 C   0  0  0  0  0  0  0  0  0  0  0  0
    3.0152   -1.7510    1.0031 C   0  0  0  0  0  0  0  0  0  0  0  0
    3.1235   -2.6889    1.9863 F   0  0  0  0  0  0  0  0  0  0  0  0
    2.8346   -0.5613    1.6399 F   0  0  0  0  0  0  0  0  0  0  0  0
    1.8471   -2.0175    0.3581 F   0  0  0  0  0  0  0  0  0  0  0  0
    5.1201   -2.7944   -0.0740 C   0  0  0  0  0  0  0  0  0  0  0  0
    6.1277   -2.7461   -1.0696 C   0  0  0  0  0  0  0  0  0  0  0  0
    7.0937   -3.8996   -1.2234 C   0  0  0  0  0  0  0  0  0  0  0  0
    7.4565   -4.4514   -0.0325 F   0  0  0  0  0  0  0  0  0  0  0  0
    6.5690   -4.9140   -1.9638 F   0  0  0  0  0  0  0  0  0  0  0  0
    8.2559   -3.5471   -1.8397 F   0  0  0  0  0  0  0  0  0  0  0  0
    6.1789   -1.6556   -1.9675 C   0  0  0  0  0  0  0  0  0  0  0  0
    4.1414    0.2390   -3.8193 C   0  0  0  0  0  0  0  0  0  0  0  0
    3.1184    1.1517   -4.0661 C   0  0  0  0  0  0  0  0  0  0  0  0
    1.2299    3.8879   -3.9662 C   0  0  0  0  0  0  0  0  0  0  0  0
   -0.0184    4.4767   -3.7562 C   0  0  0  0  0  0  0  0  0  0  0  0
   -0.7733    4.1712   -2.5879 C   0  0  0  0  0  0  0  0  0  0  0  0
   -2.0617    4.7578   -2.5067 C   0  0  0  0  0  0  0  0  0  0  0  0
   -2.5531    5.6329   -3.4790 C   0  0  0  0  0  0  0  0  0  0  0  0
   -1.7765    5.9434   -4.5831 C   0  0  0  0  0  0  0  0  0  0  0  0
   -0.5189    5.3646   -4.7220 C   0  0  0  0  0  0  0  0  0  0  0  0
   -0.2487    3.2717   -1.5881 C   0  0  0  0  0  0  0  0  0  0  0  0
   -0.8797    3.0428   -0.3010 C   0  0  0  0  0  0  0  0  0  0  0  0
   -1.1887    1.7259    0.1244 C   0  0  0  0  0  0  0  0  0  0  0  0
   -0.8333    0.6672   -0.6782 O   0  0  0  0  0  0  0  0  0  0  0  0
   -1.9263    1.4311    1.2838 C   0  0  0  0  0  0  0  0  0  0  0  0
   -2.3073    0.0626    1.6574 C   0  0  0  0  0  0  0  0  0  0  0  0
   -1.4098   -0.7830    2.3198 C   0  0  0  0  0  0  0  0  0  0  0  0
   -1.7876   -2.0775    2.6959 C   0  0  0  0  0  0  0  0  0  0  0  0
   -3.0756   -2.5656    2.4271 C   0  0  0  0  0  0  0  0  0  0  0  0
   -3.4728   -3.9258    2.8292 C   0  0  0  0  0  0  0  0  0  0  0  0
   -2.6946   -5.0404    2.4768 C   0  0  0  0  0  0  0  0  0  0  0  0
   -3.0545   -6.3435    2.8628 C   0  0  0  0  0  0  0  0  0  0  0  0
   -2.1997   -7.5171    2.4478 C   0  0  0  0  0  0  0  0  0  0  0  0
   -2.4764   -7.9349    1.1829 F   0  0  0  0  0  0  0  0  0  0  0  0
   -0.8676   -7.2348    2.4687 F   0  0  0  0  0  0  0  0  0  0  0  0
   -2.3616   -8.6069    3.2483 F   0  0  0  0  0  0  0  0  0  0  0  0
   -4.2308   -6.5322    3.6038 C   0  0  0  0  0  0  0  0  0  0  0  0
   -5.0353   -5.4412    3.9645 C   0  0  0  0  0  0  0  0  0  0  0  0
   -6.2865   -5.6382    4.7859 C   0  0  0  0  0  0  0  0  0  0  0  0
   -6.8363   -6.8754    4.6348 F   0  0  0  0  0  0  0  0  0  0  0  0
   -6.0581   -5.4900    6.1193 F   0  0  0  0  0  0  0  0  0  0  0  0
   -7.2726   -4.7526    4.4722 F   0  0  0  0  0  0  0  0  0  0  0  0
   -4.6398   -4.1482    3.5791 C   0  0  0  0  0  0  0  0  0  0  0  0
   -3.9716   -1.7141    1.7626 C   0  0  0  0  0  0  0  0  0  0  0  0
   -3.5939   -0.4203    1.3834 C   0  0  0  0  0  0  0  0  0  0  0  0
   -2.3244    2.4952    2.0941 C   0  0  0  0  0  0  0  0  0  0  0  0
   -1.9827    3.8144    1.7860 C   0  0  0  0  0  0  0  0  0  0  0  0
   -1.2460    4.1039    0.6063 C   0  0  0  0  0  0  0  0  0  0  0  0
   -0.8676    5.4595    0.4240 C   0  0  0  0  0  0  0  0  0  0  0  0
   -1.2466    6.4733    1.3087 C   0  0  0  0  0  0  0  0  0  0  0  0
   -2.0058    6.1653    2.4255 C   0  0  0  0  0  0  0  0  0  0  0  0
   -2.3647    4.8423    2.6652 C   0  0  0  0  0  0  0  0  0  0  0  0
    0.3658    0.0720   -2.9020 H   0  0  0  0  0  0  0  0  0  0  0  0
    4.1165    3.6370   -1.9601 H   0  0  0  0  0  0  0  0  0  0  0  0
    5.8957    2.0333   -1.5086 H   0  0  0  0  0  0  0  0  0  0  0  0
    3.6267    0.1566   -0.6766 H   0  0  0  0  0  0  0  0  0  0  0  0
    5.0406   -3.6639    0.5790 H   0  0  0  0  0  0  0  0  0  0  0  0
    6.9033   -1.6476   -2.7802 H   0  0  0  0  0  0  0  0  0  0  0  0
    4.0523   -0.7634   -4.2365 H   0  0  0  0  0  0  0  0  0  0  0  0
    2.2962    0.8541   -4.7127 H   0  0  0  0  0  0  0  0  0  0  0  0
    1.8125    4.1411   -4.8512 H   0  0  0  0  0  0  0  0  0  0  0  0
   -2.7229    4.5277   -1.6728 H   0  0  0  0  0  0  0  0  0  0  0  0
   -3.5448    6.0641   -3.3682 H   0  0  0  0  0  0  0  0  0  0  0  0
   -2.1516    6.6221   -5.3438 H   0  0  0  0  0  0  0  0  0  0  0  0
    0.0672    5.6068   -5.6069 H   0  0  0  0  0  0  0  0  0  0  0  0
   -0.4006   -0.4428    2.5479 H   0  0  0  0  0  0  0  0  0  0  0  0
   -1.0590   -2.6994    3.2130 H   0  0  0  0  0  0  0  0  0  0  0  0
   -1.7904   -4.8965    1.8829 H   0  0  0  0  0  0  0  0  0  0  0  0
   -4.5237   -7.5403    3.9029 H   0  0  0  0  0  0  0  0  0  0  0  0
   -5.2524   -3.2968    3.8794 H   0  0  0  0  0  0  0  0  0  0  0  0
   -4.9759   -2.0558    1.5201 H   0  0  0  0  0  0  0  0  0  0  0  0
   -4.3140    0.2107    0.8663 H   0  0  0  0  0  0  0  0  0  0  0  0
   -2.8931    2.2801    2.9988 H   0  0  0  0  0  0  0  0  0  0  0  0
   -0.2468    5.7521   -0.4210 H   0  0  0  0  0  0  0  0  0  0  0  0
   -0.9390    7.4989    1.1216 H   0  0  0  0  0  0  0  0  0  0  0  0
   -2.3033    6.9469    3.1192 H   0  0  0  0  0  0  0  0  0  0  0  0
   -2.9396    4.6157    3.5616 H   0  0  0  0  0  0  0  0  0  0  0  0
  2 37  1  0  0  0  0
  2  1  2  0  0  0  0
  3  2  1  0  0  0  0
  4  2  1  0  0  0  0
  5 34  1  0  0  0  0
  5  4  1  0  0  0  0
  6  5  2  0  0  0  0
  7  6  1  0  0  0  0
  7  8  2  0  0  0  0
  8  9  1  0  0  0  0
  8 67  1  0  0  0  0
  9 68  1  0  0  0  0
 10  9  2  0  0  0  0
 10 11  1  0  0  0  0
 11 12  1  0  0  0  0
 12 69  1  0  0  0  0
 12 13  2  0  0  0  0
 13 14  1  0  0  0  0
 14 16  1  0  0  0  0
 14 15  1  0  0  0  0
 17 14  1  0  0  0  0
 18 13  1  0  0  0  0
 18 70  1  0  0  0  0
 19 18  2  0  0  0  0
 20 19  1  0  0  0  0
 20 21  1  0  0  0  0
 22 20  1  0  0  0  0
 23 20  1  0  0  0  0
 24 11  2  0  0  0  0
 24 19  1  0  0  0  0
 25 10  1  0  0  0  0
 26 25  2  0  0  0  0
 26  7  1  0  0  0  0
 27 28  2  0  0  0  0
 27  6  1  0  0  0  0
 28 29  1  0  0  0  0
 29 30  1  0  0  0  0
 29 34  2  0  0  0  0
 30 75  1  0  0  0  0
 31 76  1  0  0  0  0
 31 30  2  0  0  0  0
 32 31  1  0  0  0  0
 33 32  2  0  0  0  0
 33 28  1  0  0  0  0
 34 35  1  0  0  0  0
 35 36  2  0  0  0  0
 35 61  1  0  0  0  0
 36 38  1  0  0  0  0
 37 36  1  0  0  0  0
 38 39  1  0  0  0  0
 38 59  2  0  0  0  0
 39 40  1  0  0  0  0
 40 79  1  0  0  0  0
 40 41  2  0  0  0  0
 41 80  1  0  0  0  0
 42 41  1  0  0  0  0
 42 43  1  0  0  0  0
 43 56  1  0  0  0  0
 44 43  2  0  0  0  0
 44 45  1  0  0  0  0
 45 50  2  0  0  0  0
 46 48  1  0  0  0  0
 46 45  1  0  0  0  0
 46 49  1  0  0  0  0
 47 46  1  0  0  0  0
 50 82  1  0  0  0  0
 50 51  1  0  0  0  0
 51 52  1  0  0  0  0
 52 54  1  0  0  0  0
 53 52  1  0  0  0  0
 55 52  1  0  0  0  0
 56 83  1  0  0  0  0
 56 51  2  0  0  0  0
 57 42  2  0  0  0  0
 58 39  2  0  0  0  0
 58 57  1  0  0  0  0
 59 86  1  0  0  0  0
 60 59  1  0  0  0  0
 60 65  2  0  0  0  0
 61 60  1  0  0  0  0
 62 61  2  0  0  0  0
 62 63  1  0  0  0  0
 63 64  2  0  0  0  0
 64 65  1  0  0  0  0
 64 89  1  0  0  0  0
 65 90  1  0  0  0  0
 66  3  1  0  0  0  0
 71 24  1  0  0  0  0
 72 25  1  0  0  0  0
 73 26  1  0  0  0  0
 74 27  1  0  0  0  0
 77 32  1  0  0  0  0
 78 33  1  0  0  0  0
 81 44  1  0  0  0  0
 84 57  1  0  0  0  0
 85 58  1  0  0  0  0
 87 62  1  0  0  0  0
 88 63  1  0  0  0  0
M  END
$$$$
