O=P1(O)OC2=C(C3=CC(COC)=CC=C3)C=C4C(C=CC=C4)=C2C5=C(O1)C(C6=CC=CC(COC)=C6)=CC7=C5C=CC=C7
 OpenBabel09032010383D

 72 78  0  0  0  0  0  0  0  0999 V2000
    0.3905    2.4191    1.2132 O   0  0  0  0  0  0  0  0  0  0  0  0
   -0.0537    1.3632    0.2507 P   0  0  0  0  0  0  0  0  0  0  0  0
   -0.7906    1.9931   -1.0334 O   0  0  0  0  0  0  0  0  0  0  0  0
    1.0839    0.4226   -0.3898 O   0  0  0  0  0  0  0  0  0  0  0  0
    1.5605   -0.6152    0.3842 C   0  0  0  0  0  0  0  0  0  0  0  0
    2.8767   -0.4971    0.8694 C   0  0  0  0  0  0  0  0  0  0  0  0
    3.7169    0.6860    0.6036 C   0  0  0  0  0  0  0  0  0  0  0  0
    3.9770    1.1138   -0.7087 C   0  0  0  0  0  0  0  0  0  0  0  0
    4.7181    2.2775   -0.9707 C   0  0  0  0  0  0  0  0  0  0  0  0
    4.9377    2.7431   -2.3894 C   0  0  0  0  0  0  0  0  0  0  0  0
    3.7672    2.6182   -3.2011 O   0  0  0  0  0  0  0  0  0  0  0  0
    2.7726    3.5890   -2.8935 C   0  0  0  0  0  0  0  0  0  0  0  0
    5.2604    2.9911    0.1039 C   0  0  0  0  0  0  0  0  0  0  0  0
    5.0333    2.5708    1.4131 C   0  0  0  0  0  0  0  0  0  0  0  0
    4.2616    1.4337    1.6595 C   0  0  0  0  0  0  0  0  0  0  0  0
    3.3753   -1.5498    1.6398 C   0  0  0  0  0  0  0  0  0  0  0  0
    2.5899   -2.6614    1.9603 C   0  0  0  0  0  0  0  0  0  0  0  0
    1.2598   -2.7634    1.4716 C   0  0  0  0  0  0  0  0  0  0  0  0
    0.5052   -3.8715    1.9352 C   0  0  0  0  0  0  0  0  0  0  0  0
    1.0467   -4.8541    2.7679 C   0  0  0  0  0  0  0  0  0  0  0  0
    2.3637   -4.7541    3.1852 C   0  0  0  0  0  0  0  0  0  0  0  0
    3.1274   -3.6606    2.7888 C   0  0  0  0  0  0  0  0  0  0  0  0
    0.7282   -1.7456    0.6004 C   0  0  0  0  0  0  0  0  0  0  0  0
   -0.5694   -1.8279   -0.0458 C   0  0  0  0  0  0  0  0  0  0  0  0
   -1.4974   -0.7648    0.0872 C   0  0  0  0  0  0  0  0  0  0  0  0
   -1.1485    0.3384    0.8368 O   0  0  0  0  0  0  0  0  0  0  0  0
   -2.7999   -0.7733   -0.4492 C   0  0  0  0  0  0  0  0  0  0  0  0
   -3.7106    0.3800   -0.3150 C   0  0  0  0  0  0  0  0  0  0  0  0
   -4.2221    1.0227   -1.4546 C   0  0  0  0  0  0  0  0  0  0  0  0
   -5.0238    2.1593   -1.3403 C   0  0  0  0  0  0  0  0  0  0  0  0
   -5.3208    2.6776   -0.0822 C   0  0  0  0  0  0  0  0  0  0  0  0
   -4.8346    2.0549    1.0732 C   0  0  0  0  0  0  0  0  0  0  0  0
   -5.1284    2.6360    2.4327 C   0  0  0  0  0  0  0  0  0  0  0  0
   -4.5523    3.9358    2.5661 O   0  0  0  0  0  0  0  0  0  0  0  0
   -3.1704    3.8938    2.9030 C   0  0  0  0  0  0  0  0  0  0  0  0
   -4.0464    0.9017    0.9457 C   0  0  0  0  0  0  0  0  0  0  0  0
   -3.1970   -1.9070   -1.1583 C   0  0  0  0  0  0  0  0  0  0  0  0
   -2.3249   -2.9788   -1.3731 C   0  0  0  0  0  0  0  0  0  0  0  0
   -1.0030   -2.9437   -0.8514 C   0  0  0  0  0  0  0  0  0  0  0  0
   -0.1583   -4.0219   -1.2200 C   0  0  0  0  0  0  0  0  0  0  0  0
   -0.6060   -5.1024   -1.9849 C   0  0  0  0  0  0  0  0  0  0  0  0
   -1.9163   -5.1335   -2.4325 C   0  0  0  0  0  0  0  0  0  0  0  0
   -2.7669   -4.0735   -2.1351 C   0  0  0  0  0  0  0  0  0  0  0  0
   -1.4706    2.6347   -0.7573 H   0  0  0  0  0  0  0  0  0  0  0  0
    3.5655    0.5532   -1.5484 H   0  0  0  0  0  0  0  0  0  0  0  0
    5.2952    3.7792   -2.4241 H   0  0  0  0  0  0  0  0  0  0  0  0
    5.7159    2.1159   -2.8385 H   0  0  0  0  0  0  0  0  0  0  0  0
    3.1713    4.6002   -3.0194 H   0  0  0  0  0  0  0  0  0  0  0  0
    2.3911    3.4575   -1.8769 H   0  0  0  0  0  0  0  0  0  0  0  0
    1.9407    3.4556   -3.5905 H   0  0  0  0  0  0  0  0  0  0  0  0
    5.8499    3.8881   -0.0698 H   0  0  0  0  0  0  0  0  0  0  0  0
    5.4401    3.1387    2.2456 H   0  0  0  0  0  0  0  0  0  0  0  0
    4.0637    1.1469    2.6904 H   0  0  0  0  0  0  0  0  0  0  0  0
    4.3966   -1.4873    2.0149 H   0  0  0  0  0  0  0  0  0  0  0  0
   -0.5422   -3.9823    1.6594 H   0  0  0  0  0  0  0  0  0  0  0  0
    0.4308   -5.6892    3.0904 H   0  0  0  0  0  0  0  0  0  0  0  0
    2.7926   -5.5131    3.8330 H   0  0  0  0  0  0  0  0  0  0  0  0
    4.1520   -3.5865    3.1490 H   0  0  0  0  0  0  0  0  0  0  0  0
   -3.9756    0.6523   -2.4482 H   0  0  0  0  0  0  0  0  0  0  0  0
   -5.4039    2.6489   -2.2334 H   0  0  0  0  0  0  0  0  0  0  0  0
   -5.9262    3.5785    0.0003 H   0  0  0  0  0  0  0  0  0  0  0  0
   -6.2142    2.7424    2.5380 H   0  0  0  0  0  0  0  0  0  0  0  0
   -4.7960    1.9800    3.2462 H   0  0  0  0  0  0  0  0  0  0  0  0
   -2.5880    3.4144    2.1107 H   0  0  0  0  0  0  0  0  0  0  0  0
   -2.8158    4.9218    3.0165 H   0  0  0  0  0  0  0  0  0  0  0  0
   -3.0220    3.3691    3.8517 H   0  0  0  0  0  0  0  0  0  0  0  0
   -3.6655    0.4146    1.8431 H   0  0  0  0  0  0  0  0  0  0  0  0
   -4.2049   -1.9429   -1.5710 H   0  0  0  0  0  0  0  0  0  0  0  0
    0.8883   -4.0299   -0.9208 H   0  0  0  0  0  0  0  0  0  0  0  0
    0.0769   -5.9109   -2.2318 H   0  0  0  0  0  0  0  0  0  0  0  0
   -2.2723   -5.9691   -3.0285 H   0  0  0  0  0  0  0  0  0  0  0  0
   -3.7847   -4.1024   -2.5202 H   0  0  0  0  0  0  0  0  0  0  0  0
  2 26  1  0  0  0  0
  2  1  2  0  0  0  0
  3 44  1  0  0  0  0
  3  2  1  0  0  0  0
  4  2  1  0  0  0  0
  4  5  1  0  0  0  0
  5 23  2  0  0  0  0
  5  6  1  0  0  0  0
  6 16  2  0  0  0  0
  7  6  1  0  0  0  0
  7 15  2  0  0  0  0
  8  7  1  0  0  0  0
  9  8  2  0  0  0  0
  9 13  1  0  0  0  0
 10  9  1  0  0  0  0
 11 12  1  0  0  0  0
 11 10  1  0  0  0  0
 12 49  1  0  0  0  0
 13 14  2  0  0  0  0
 14 15  1  0  0  0  0
 14 52  1  0  0  0  0
 15 53  1  0  0  0  0
 16 17  1  0  0  0  0
 16 54  1  0  0  0  0
 17 22  2  0  0  0  0
 18 19  2  0  0  0  0
 18 17  1  0  0  0  0
 19 20  1  0  0  0  0
 20 56  1  0  0  0  0
 20 21  2  0  0  0  0
 21 57  1  0  0  0  0
 22 58  1  0  0  0  0
 22 21  1  0  0  0  0
 23 18  1  0  0  0  0
 24 25  1  0  0  0  0
 24 23  1  0  0  0  0
 25 26  1  0  0  0  0
 27 28  1  0  0  0  0
 27 25  2  0  0  0  0
 28 36  2  0  0  0  0
 29 30  2  0  0  0  0
 29 28  1  0  0  0  0
 30 31  1  0  0  0  0
 31 61  1  0  0  0  0
 31 32  2  0  0  0  0
 32 33  1  0  0  0  0
 33 62  1  0  0  0  0
 33 34  1  0  0  0  0
 33 63  1  0  0  0  0
 34 35  1  0  0  0  0
 35 65  1  0  0  0  0
 35 66  1  0  0  0  0
 36 32  1  0  0  0  0
 36 67  1  0  0  0  0
 37 27  1  0  0  0  0
 38 37  2  0  0  0  0
 38 39  1  0  0  0  0
 39 24  2  0  0  0  0
 40 69  1  0  0  0  0
 40 39  1  0  0  0  0
 41 40  2  0  0  0  0
 42 43  2  0  0  0  0
 42 41  1  0  0  0  0
 43 38  1  0  0  0  0
 45  8  1  0  0  0  0
 46 10  1  0  0  0  0
 47 10  1  0  0  0  0
 48 12  1  0  0  0  0
 50 12  1  0  0  0  0
 51 13  1  0  0  0  0
 55 19  1  0  0  0  0
 59 29  1  0  0  0  0
 60 30  1  0  0  0  0
 64 35  1  0  0  0  0
 68 37  1  0  0  0  0
 70 41  1  0  0  0  0
 71 42  1  0  0  0  0
 72 43  1  0  0  0  0
M  END
$$$$
