O=P1(O)OC2=C(C3=CC=C(C4=CC(C(F)(F)F)=CC(C(F)(F)F)=C4)C=C3)C=C5C(C=CC=C5)=C2C6=C(O1)C(C7=CC=C(C8=CC(C(F)(F)F)=CC(C(F)(F)F)=C8)C=C7)=CC9=C6C=CC=C9
 OpenBabel09032010373D

 90 98  0  0  0  0  0  0  0  0999 V2000
    1.2865   -0.5212    0.3647 O   0  0  0  0  0  0  0  0  0  0  0  0
    0.7418    0.2928   -0.7704 P   0  0  2  0  0  0  0  0  0  0  0  0
    0.7932   -0.4547   -2.1957 O   0  0  0  0  0  0  0  0  0  0  0  0
    1.5093    1.6851   -1.0523 O   0  0  0  0  0  0  0  0  0  0  0  0
    0.9717    2.6288   -1.9161 C   0  0  0  0  0  0  0  0  0  0  0  0
    1.7400    2.9579   -3.0641 C   0  0  0  0  0  0  0  0  0  0  0  0
    3.0434    2.3229   -3.2904 C   0  0  0  0  0  0  0  0  0  0  0  0
    4.1476    2.7136   -2.5196 C   0  0  0  0  0  0  0  0  0  0  0  0
    5.1787    1.8084   -2.2806 C   0  0  0  0  0  0  0  0  0  0  0  0
    5.0600    0.5002   -2.7739 C   0  0  0  0  0  0  0  0  0  0  0  0
    5.2851   -0.6055   -1.8306 C   0  0  0  0  0  0  0  0  0  0  0  0
    4.3508   -0.6607   -0.7797 C   0  0  0  0  0  0  0  0  0  0  0  0
    4.2097   -1.7573    0.0595 C   0  0  0  0  0  0  0  0  0  0  0  0
    3.0243   -1.7530    1.0010 C   0  0  0  0  0  0  0  0  0  0  0  0
    2.9949   -2.8449    1.8162 F   0  0  0  0  0  0  0  0  0  0  0  0
    1.8326   -1.7425    0.3439 F   0  0  0  0  0  0  0  0  0  0  0  0
    3.0123   -0.6702    1.8258 F   0  0  0  0  0  0  0  0  0  0  0  0
    5.1214   -2.8046   -0.0881 C   0  0  0  0  0  0  0  0  0  0  0  0
    6.1280   -2.7531   -1.0844 C   0  0  0  0  0  0  0  0  0  0  0  0
    7.0897   -3.9090   -1.2470 C   0  0  0  0  0  0  0  0  0  0  0  0
    7.4534   -4.4687   -0.0600 F   0  0  0  0  0  0  0  0  0  0  0  0
    6.5598   -4.9175   -1.9918 F   0  0  0  0  0  0  0  0  0  0  0  0
    8.2516   -3.5570   -1.8641 F   0  0  0  0  0  0  0  0  0  0  0  0
    6.1818   -1.6569   -1.9752 C   0  0  0  0  0  0  0  0  0  0  0  0
    4.1529    0.2470   -3.8169 C   0  0  0  0  0  0  0  0  0  0  0  0
    3.1294    1.1592   -4.0640 C   0  0  0  0  0  0  0  0  0  0  0  0
    1.2323    3.8851   -3.9662 C   0  0  0  0  0  0  0  0  0  0  0  0
   -0.0181    4.4703   -3.7586 C   0  0  0  0  0  0  0  0  0  0  0  0
   -0.7726    4.1659   -2.5898 C   0  0  0  0  0  0  0  0  0  0  0  0
   -2.0629    4.7483   -2.5111 C   0  0  0  0  0  0  0  0  0  0  0  0
   -2.5568    5.6187   -3.4864 C   0  0  0  0  0  0  0  0  0  0  0  0
   -1.7807    5.9284   -4.5911 C   0  0  0  0  0  0  0  0  0  0  0  0
   -0.5211    5.3535   -4.7275 C   0  0  0  0  0  0  0  0  0  0  0  0
   -0.2455    3.2710   -1.5872 C   0  0  0  0  0  0  0  0  0  0  0  0
   -0.8769    3.0429   -0.3003 C   0  0  0  0  0  0  0  0  0  0  0  0
   -1.1830    1.7260    0.1273 C   0  0  0  0  0  0  0  0  0  0  0  0
   -0.8239    0.6667   -0.6729 O   0  0  0  0  0  0  0  0  0  0  0  0
   -1.9227    1.4319    1.2856 C   0  0  0  0  0  0  0  0  0  0  0  0
   -2.3038    0.0636    1.6604 C   0  0  0  0  0  0  0  0  0  0  0  0
   -1.4030   -0.7859    2.3132 C   0  0  0  0  0  0  0  0  0  0  0  0
   -1.7814   -2.0797    2.6910 C   0  0  0  0  0  0  0  0  0  0  0  0
   -3.0737   -2.5627    2.4342 C   0  0  0  0  0  0  0  0  0  0  0  0
   -3.4717   -3.9210    2.8408 C   0  0  0  0  0  0  0  0  0  0  0  0
   -2.7113   -5.0401    2.4646 C   0  0  0  0  0  0  0  0  0  0  0  0
   -3.0748   -6.3418    2.8506 C   0  0  0  0  0  0  0  0  0  0  0  0
   -2.2505   -7.5270    2.4078 C   0  0  0  0  0  0  0  0  0  0  0  0
   -2.2615   -8.5464    3.3107 F   0  0  0  0  0  0  0  0  0  0  0  0
   -0.9384   -7.2214    2.2082 F   0  0  0  0  0  0  0  0  0  0  0  0
   -2.6965   -8.0574    1.2369 F   0  0  0  0  0  0  0  0  0  0  0  0
   -4.2344   -6.5235    3.6197 C   0  0  0  0  0  0  0  0  0  0  0  0
   -5.0109   -5.4260    4.0200 C   0  0  0  0  0  0  0  0  0  0  0  0
   -6.2655   -5.6222    4.8364 C   0  0  0  0  0  0  0  0  0  0  0  0
   -6.2259   -6.7380    5.6168 F   0  0  0  0  0  0  0  0  0  0  0  0
   -7.3736   -5.7497    4.0564 F   0  0  0  0  0  0  0  0  0  0  0  0
   -6.5188   -4.5855    5.6824 F   0  0  0  0  0  0  0  0  0  0  0  0
   -4.6221   -4.1363    3.6182 C   0  0  0  0  0  0  0  0  0  0  0  0
   -3.9732   -1.7079    1.7790 C   0  0  0  0  0  0  0  0  0  0  0  0
   -3.5945   -0.4150    1.3977 C   0  0  0  0  0  0  0  0  0  0  0  0
   -2.3241    2.4968    2.0933 C   0  0  0  0  0  0  0  0  0  0  0  0
   -1.9846    3.8162    1.7833 C   0  0  0  0  0  0  0  0  0  0  0  0
   -1.2469    4.1050    0.6041 C   0  0  0  0  0  0  0  0  0  0  0  0
   -0.8718    5.4612    0.4193 C   0  0  0  0  0  0  0  0  0  0  0  0
   -1.2543    6.4759    1.3014 C   0  0  0  0  0  0  0  0  0  0  0  0
   -2.0140    6.1683    2.4179 C   0  0  0  0  0  0  0  0  0  0  0  0
   -2.3701    4.8450    2.6600 C   0  0  0  0  0  0  0  0  0  0  0  0
    0.3786    0.0747   -2.8969 H   0  0  0  0  0  0  0  0  0  0  0  0
    4.1178    3.6390   -1.9471 H   0  0  0  0  0  0  0  0  0  0  0  0
    5.8978    2.0362   -1.4951 H   0  0  0  0  0  0  0  0  0  0  0  0
    3.6417    0.1587   -0.6639 H   0  0  0  0  0  0  0  0  0  0  0  0
    5.0401   -3.6779    0.5595 H   0  0  0  0  0  0  0  0  0  0  0  0
    6.9041   -1.6469   -2.7897 H   0  0  0  0  0  0  0  0  0  0  0  0
    4.0664   -0.7540   -4.2377 H   0  0  0  0  0  0  0  0  0  0  0  0
    2.3095    0.8625   -4.7138 H   0  0  0  0  0  0  0  0  0  0  0  0
    1.8144    4.1374   -4.8518 H   0  0  0  0  0  0  0  0  0  0  0  0
   -2.7239    4.5184   -1.6769 H   0  0  0  0  0  0  0  0  0  0  0  0
   -3.5500    6.0469   -3.3775 H   0  0  0  0  0  0  0  0  0  0  0  0
   -2.1577    6.6035   -5.3540 H   0  0  0  0  0  0  0  0  0  0  0  0
    0.0646    5.5949   -5.6129 H   0  0  0  0  0  0  0  0  0  0  0  0
   -0.3909   -0.4491    2.5333 H   0  0  0  0  0  0  0  0  0  0  0  0
   -1.0504   -2.7049    3.2005 H   0  0  0  0  0  0  0  0  0  0  0  0
   -1.8210   -4.8996    1.8492 H   0  0  0  0  0  0  0  0  0  0  0  0
   -4.5329   -7.5316    3.9136 H   0  0  0  0  0  0  0  0  0  0  0  0
   -5.2231   -3.2810    3.9309 H   0  0  0  0  0  0  0  0  0  0  0  0
   -4.9809   -2.0462    1.5463 H   0  0  0  0  0  0  0  0  0  0  0  0
   -4.3174    0.2190    0.8882 H   0  0  0  0  0  0  0  0  0  0  0  0
   -2.8939    2.2824    2.9975 H   0  0  0  0  0  0  0  0  0  0  0  0
   -0.2508    5.7535   -0.4257 H   0  0  0  0  0  0  0  0  0  0  0  0
   -0.9490    7.5018    1.1125 H   0  0  0  0  0  0  0  0  0  0  0  0
   -2.3142    6.9507    3.1097 H   0  0  0  0  0  0  0  0  0  0  0  0
   -2.9456    4.6189    3.5561 H   0  0  0  0  0  0  0  0  0  0  0  0
  2  3  1  6  0  0  0
  2 37  1  0  0  0  0
  2  1  1  0  0  0  0
  4  2  1  0  0  0  0
  5 34  1  0  0  0  0
  5  4  1  0  0  0  0
  6  5  2  0  0  0  0
  7  6  1  0  0  0  0
  7  8  2  0  0  0  0
  8  9  1  0  0  0  0
  8 67  1  0  0  0  0
  9 68  1  0  0  0  0
 10  9  2  0  0  0  0
 10 11  1  0  0  0  0
 11 12  1  0  0  0  0
 12 69  1  0  0  0  0
 12 13  2  0  0  0  0
 13 14  1  0  0  0  0
 14 15  1  0  0  0  0
 14 17  1  0  0  0  0
 16  1  1  0  0  0  0
 18 13  1  0  0  0  0
 18 70  1  0  0  0  0
 19 18  2  0  0  0  0
 20 19  1  0  0  0  0
 20 21  1  0  0  0  0
 22 20  1  0  0  0  0
 23 20  1  0  0  0  0
 24 11  2  0  0  0  0
 24 19  1  0  0  0  0
 25 10  1  0  0  0  0
 26 25  2  0  0  0  0
 26  7  1  0  0  0  0
 27 28  2  0  0  0  0
 27  6  1  0  0  0  0
 28 29  1  0  0  0  0
 29 30  1  0  0  0  0
 29 34  2  0  0  0  0
 30 75  1  0  0  0  0
 31 76  1  0  0  0  0
 31 30  2  0  0  0  0
 32 31  1  0  0  0  0
 33 32  2  0  0  0  0
 33 28  1  0  0  0  0
 34 35  1  0  0  0  0
 35 36  2  0  0  0  0
 35 61  1  0  0  0  0
 36 38  1  0  0  0  0
 37 36  1  0  0  0  0
 38 39  1  0  0  0  0
 38 59  2  0  0  0  0
 39 40  1  0  0  0  0
 40 79  1  0  0  0  0
 40 41  2  0  0  0  0
 41 80  1  0  0  0  0
 42 41  1  0  0  0  0
 42 43  1  0  0  0  0
 43 56  1  0  0  0  0
 44 43  2  0  0  0  0
 44 45  1  0  0  0  0
 45 50  2  0  0  0  0
 46 45  1  0  0  0  0
 46 47  1  0  0  0  0
 48 46  1  0  0  0  0
 49 46  1  0  0  0  0
 50 82  1  0  0  0  0
 50 51  1  0  0  0  0
 51 52  1  0  0  0  0
 52 53  1  0  0  0  0
 52 55  1  0  0  0  0
 54 52  1  0  0  0  0
 56 83  1  0  0  0  0
 56 51  2  0  0  0  0
 57 42  2  0  0  0  0
 58 39  2  0  0  0  0
 58 57  1  0  0  0  0
 59 86  1  0  0  0  0
 60 59  1  0  0  0  0
 60 65  2  0  0  0  0
 61 60  1  0  0  0  0
 62 61  2  0  0  0  0
 62 63  1  0  0  0  0
 63 64  2  0  0  0  0
 64 65  1  0  0  0  0
 64 89  1  0  0  0  0
 65 90  1  0  0  0  0
 66  3  1  0  0  0  0
 71 24  1  0  0  0  0
 72 25  1  0  0  0  0
 73 26  1  0  0  0  0
 74 27  1  0  0  0  0
 77 32  1  0  0  0  0
 78 33  1  0  0  0  0
 81 44  1  0  0  0  0
 84 57  1  0  0  0  0
 85 58  1  0  0  0  0
 87 62  1  0  0  0  0
 88 63  1  0  0  0  0
M  RAD  1  14   2
M  END
$$$$
