O=P1(O)OC2=[C@]([C@]3=C(Cl)C=C(Cl)C=C3Cl)C=C4C(CCCC4)=[C@]2[C@]5=C(O1)C(C6=C(Cl)C=C(Cl)C=C6Cl)=CC7=C5CCCC7
 OpenBabel09032010373D

 66 72  0  0  0  0  0  0  0  0999 V2000
    0.5188   -3.7495   -0.8065 O   0  0  0  0  0  0  0  0  0  0  0  0
   -0.0434   -2.6942    0.0919 P   0  0  0  0  0  0  0  0  0  0  0  0
   -0.7642   -3.3081    1.3924 O   0  0  0  0  0  0  0  0  0  0  0  0
    1.0425   -1.7041    0.7536 O   0  0  0  0  0  0  0  0  0  0  0  0
    1.5342   -0.6931   -0.0399 C   0  0  0  0  0  0  0  0  0  0  0  0
    2.8847   -0.7710   -0.4235 C   0  0  0  0  0  0  0  0  0  0  0  0
    3.7439   -1.8958   -0.0053 C   0  0  0  0  0  0  0  0  0  0  0  0
    4.2685   -1.9729    1.3026 C   0  0  0  0  0  0  0  0  0  0  0  0
    3.9957   -0.7211    2.4717 Cl  0  0  0  0  0  0  0  0  0  0  0  0
    5.0477   -3.0595    1.7117 C   0  0  0  0  0  0  0  0  0  0  0  0
    5.3196   -4.0878    0.8175 C   0  0  0  0  0  0  0  0  0  0  0  0
    6.2782   -5.4242    1.3214 Cl  0  0  0  0  0  0  0  0  0  0  0  0
    4.8306   -4.0398   -0.4821 C   0  0  0  0  0  0  0  0  0  0  0  0
    4.0524   -2.9518   -0.8903 C   0  0  0  0  0  0  0  0  0  0  0  0
    3.4961   -2.9600   -2.5323 Cl  0  0  0  0  0  0  0  0  0  0  0  0
    3.3969    0.2510   -1.2248 C   0  0  0  0  0  0  0  0  0  0  0  0
    2.5733    1.2819   -1.6954 C   0  0  0  0  0  0  0  0  0  0  0  0
    1.2159    1.3424   -1.2931 C   0  0  0  0  0  0  0  0  0  0  0  0
    0.2891    2.3070   -2.0253 C   0  0  0  0  0  0  0  0  0  0  0  0
    1.0038    3.5291   -2.5945 C   0  0  0  0  0  0  0  0  0  0  0  0
    2.1855    3.0891   -3.4426 C   0  0  0  0  0  0  0  0  0  0  0  0
    3.1947    2.3313   -2.5895 C   0  0  0  0  0  0  0  0  0  0  0  0
    0.6819    0.3800   -0.3796 C   0  0  0  0  0  0  0  0  0  0  0  0
   -0.6322    0.4656    0.1983 C   0  0  0  0  0  0  0  0  0  0  0  0
   -1.5615   -0.5924    0.0555 C   0  0  0  0  0  0  0  0  0  0  0  0
   -1.1852   -1.7638   -0.5640 O   0  0  0  0  0  0  0  0  0  0  0  0
   -2.9040   -0.5025    0.4695 C   0  0  0  0  0  0  0  0  0  0  0  0
   -3.8632   -1.6010    0.2396 C   0  0  0  0  0  0  0  0  0  0  0  0
   -4.1908   -2.5149    1.2638 C   0  0  0  0  0  0  0  0  0  0  0  0
   -3.5123   -2.3773    2.8547 Cl  0  0  0  0  0  0  0  0  0  0  0  0
   -5.0759   -3.5735    1.0400 C   0  0  0  0  0  0  0  0  0  0  0  0
   -5.6540   -3.7335   -0.2139 C   0  0  0  0  0  0  0  0  0  0  0  0
   -6.7454   -5.0336   -0.4905 Cl  0  0  0  0  0  0  0  0  0  0  0  0
   -5.3631   -2.8463   -1.2434 C   0  0  0  0  0  0  0  0  0  0  0  0
   -4.4771   -1.7885   -1.0173 C   0  0  0  0  0  0  0  0  0  0  0  0
   -4.1846   -0.7114   -2.3435 Cl  0  0  0  0  0  0  0  0  0  0  0  0
   -3.3167    0.6621    1.1204 C   0  0  0  0  0  0  0  0  0  0  0  0
   -2.4154    1.6988    1.3931 C   0  0  0  0  0  0  0  0  0  0  0  0
   -1.0701    1.5912    0.9676 C   0  0  0  0  0  0  0  0  0  0  0  0
   -0.0712    2.6633    1.3936 C   0  0  0  0  0  0  0  0  0  0  0  0
   -0.5451    3.5243    2.5629 C   0  0  0  0  0  0  0  0  0  0  0  0
   -1.9480    4.0370    2.2861 C   0  0  0  0  0  0  0  0  0  0  0  0
   -2.9204    2.8668    2.2103 C   0  0  0  0  0  0  0  0  0  0  0  0
   -1.0758   -2.6234    2.0115 H   0  0  0  0  0  0  0  0  0  0  0  0
    5.4379   -3.1015    2.7254 H   0  0  0  0  0  0  0  0  0  0  0  0
    5.0469   -4.8474   -1.1772 H   0  0  0  0  0  0  0  0  0  0  0  0
    4.4436    0.2235   -1.5256 H   0  0  0  0  0  0  0  0  0  0  0  0
   -0.1707    1.7460   -2.8503 H   0  0  0  0  0  0  0  0  0  0  0  0
   -0.5332    2.6598   -1.4017 H   0  0  0  0  0  0  0  0  0  0  0  0
    0.3045    4.1130   -3.2034 H   0  0  0  0  0  0  0  0  0  0  0  0
    1.3478    4.1794   -1.7806 H   0  0  0  0  0  0  0  0  0  0  0  0
    1.8331    2.4482   -4.2608 H   0  0  0  0  0  0  0  0  0  0  0  0
    2.6683    3.9588   -3.9018 H   0  0  0  0  0  0  0  0  0  0  0  0
    3.9330    1.8678   -3.2552 H   0  0  0  0  0  0  0  0  0  0  0  0
    3.7325    3.0407   -1.9477 H   0  0  0  0  0  0  0  0  0  0  0  0
   -5.3089   -4.2722    1.8399 H   0  0  0  0  0  0  0  0  0  0  0  0
   -5.8215   -2.9761   -2.2208 H   0  0  0  0  0  0  0  0  0  0  0  0
   -4.3498    0.7534    1.4553 H   0  0  0  0  0  0  0  0  0  0  0  0
    0.8742    2.1935    1.6899 H   0  0  0  0  0  0  0  0  0  0  0  0
    0.1326    3.3278    0.5492 H   0  0  0  0  0  0  0  0  0  0  0  0
   -0.5356    2.9402    3.4917 H   0  0  0  0  0  0  0  0  0  0  0  0
    0.1441    4.3647    2.7031 H   0  0  0  0  0  0  0  0  0  0  0  0
   -1.9588    4.5963    1.3420 H   0  0  0  0  0  0  0  0  0  0  0  0
   -2.2641    4.7301    3.0736 H   0  0  0  0  0  0  0  0  0  0  0  0
   -3.8707    3.2243    1.7956 H   0  0  0  0  0  0  0  0  0  0  0  0
   -3.1196    2.5037    3.2269 H   0  0  0  0  0  0  0  0  0  0  0  0
  1  2  2  0  0  0  0
  2  4  1  0  0  0  0
  2  3  1  0  0  0  0
  3 44  1  0  0  0  0
  5  4  1  0  0  0  0
  6  5  1  0  0  0  0
  6  7  1  0  0  0  0
  7  8  2  0  0  0  0
  8 10  1  0  0  0  0
  8  9  1  0  0  0  0
 10 45  1  0  0  0  0
 11 12  1  0  0  0  0
 11 10  2  0  0  0  0
 13 11  1  0  0  0  0
 14 13  2  0  0  0  0
 14  7  1  0  0  0  0
 15 14  1  0  0  0  0
 16  6  2  0  0  0  0
 17 18  2  0  0  0  0
 17 16  1  0  0  0  0
 18 23  1  0  0  0  0
 19 49  1  0  0  0  0
 19 18  1  0  0  0  0
 20 19  1  0  0  0  0
 20 51  1  0  0  0  0
 21 20  1  0  0  0  0
 21 22  1  0  0  0  0
 22 55  1  0  0  0  0
 22 17  1  0  0  0  0
 23  5  2  0  0  0  0
 23 24  1  0  0  0  0
 24 39  1  0  0  0  0
 25 24  2  0  0  0  0
 25 27  1  0  0  0  0
 26 25  1  0  0  0  0
 26  2  1  0  0  0  0
 27 37  2  0  0  0  0
 28 27  1  0  0  0  0
 28 29  2  0  0  0  0
 29 30  1  0  0  0  0
 31 29  1  0  0  0  0
 31 56  1  0  0  0  0
 32 31  2  0  0  0  0
 33 32  1  0  0  0  0
 34 35  2  0  0  0  0
 34 32  1  0  0  0  0
 35 28  1  0  0  0  0
 36 35  1  0  0  0  0
 37 38  1  0  0  0  0
 37 58  1  0  0  0  0
 38 43  1  0  0  0  0
 39 38  2  0  0  0  0
 39 40  1  0  0  0  0
 40 59  1  0  0  0  0
 40 41  1  0  0  0  0
 41 62  1  0  0  0  0
 41 61  1  0  0  0  0
 42 41  1  0  0  0  0
 42 64  1  0  0  0  0
 43 42  1  0  0  0  0
 43 66  1  0  0  0  0
 46 13  1  0  0  0  0
 47 16  1  0  0  0  0
 48 19  1  0  0  0  0
 50 20  1  0  0  0  0
 52 21  1  0  0  0  0
 53 21  1  0  0  0  0
 54 22  1  0  0  0  0
 57 34  1  0  0  0  0
 60 40  1  0  0  0  0
 63 42  1  0  0  0  0
 65 43  1  0  0  0  0
M  END
$$$$
