O=P1(O)OC2=C(C3=CC(COC)=CC=C3)C=C4C(CCCC4)=C2C5=C(O1)C(C6=CC=CC(COC)=C6)=CC7=C5CCCC7
 OpenBabel09032010383D

 80 86  0  0  0  0  0  0  0  0999 V2000
   -0.5681    2.8778   -1.9952 O   0  0  0  0  0  0  0  0  0  0  0  0
    0.1358    1.9671   -1.0374 P   0  0  0  0  0  0  0  0  0  0  0  0
    1.2257    2.7254   -0.1264 O   0  0  0  0  0  0  0  0  0  0  0  0
   -0.7980    1.2473    0.0677 O   0  0  0  0  0  0  0  0  0  0  0  0
   -1.5395    0.1675   -0.3571 C   0  0  0  0  0  0  0  0  0  0  0  0
   -2.9357    0.3054   -0.4144 C   0  0  0  0  0  0  0  0  0  0  0  0
   -3.6294    1.5238    0.0214 C   0  0  0  0  0  0  0  0  0  0  0  0
   -4.2409    1.5800    1.2858 C   0  0  0  0  0  0  0  0  0  0  0  0
   -4.9284    2.7269    1.7144 C   0  0  0  0  0  0  0  0  0  0  0  0
   -5.5428    2.7825    3.0892 C   0  0  0  0  0  0  0  0  0  0  0  0
   -6.8875    3.2515    2.9965 O   0  0  0  0  0  0  0  0  0  0  0  0
   -7.4951    3.3463    4.2764 C   0  0  0  0  0  0  0  0  0  0  0  0
   -4.9884    3.8354    0.8600 C   0  0  0  0  0  0  0  0  0  0  0  0
   -4.3863    3.7947   -0.3968 C   0  0  0  0  0  0  0  0  0  0  0  0
   -3.7142    2.6453   -0.8138 C   0  0  0  0  0  0  0  0  0  0  0  0
   -3.6782   -0.7736   -0.9015 C   0  0  0  0  0  0  0  0  0  0  0  0
   -3.0545   -1.9427   -1.3594 C   0  0  0  0  0  0  0  0  0  0  0  0
   -1.6472   -2.0623   -1.2843 C   0  0  0  0  0  0  0  0  0  0  0  0
   -0.9672   -3.2582   -1.9372 C   0  0  0  0  0  0  0  0  0  0  0  0
   -1.8499   -3.9978   -2.9416 C   0  0  0  0  0  0  0  0  0  0  0  0
   -3.2003   -4.2985   -2.3127 C   0  0  0  0  0  0  0  0  0  0  0  0
   -3.9284   -2.9969   -2.0002 C   0  0  0  0  0  0  0  0  0  0  0  0
   -0.8620   -1.0293   -0.6827 C   0  0  0  0  0  0  0  0  0  0  0  0
    0.5423   -1.1515   -0.4083 C   0  0  0  0  0  0  0  0  0  0  0  0
    1.4688   -0.2528   -0.9898 C   0  0  0  0  0  0  0  0  0  0  0  0
    0.9983    0.7994   -1.7444 O   0  0  0  0  0  0  0  0  0  0  0  0
    2.8650   -0.3773   -0.8563 C   0  0  0  0  0  0  0  0  0  0  0  0
    3.8140    0.5488   -1.5019 C   0  0  0  0  0  0  0  0  0  0  0  0
    3.8194    0.7306   -2.8929 C   0  0  0  0  0  0  0  0  0  0  0  0
    4.7195    1.6083   -3.4994 C   0  0  0  0  0  0  0  0  0  0  0  0
    5.6360    2.3167   -2.7242 C   0  0  0  0  0  0  0  0  0  0  0  0
    5.6694    2.1487   -1.3345 C   0  0  0  0  0  0  0  0  0  0  0  0
    6.6355    2.9490   -0.4965 C   0  0  0  0  0  0  0  0  0  0  0  0
    7.1621    2.1389    0.5555 O   0  0  0  0  0  0  0  0  0  0  0  0
    8.1022    2.8565    1.3432 C   0  0  0  0  0  0  0  0  0  0  0  0
    4.7476    1.2718   -0.7375 C   0  0  0  0  0  0  0  0  0  0  0  0
    3.3463   -1.4182   -0.0566 C   0  0  0  0  0  0  0  0  0  0  0  0
    2.4794   -2.2806    0.6287 C   0  0  0  0  0  0  0  0  0  0  0  0
    1.0807   -2.1270    0.4886 C   0  0  0  0  0  0  0  0  0  0  0  0
    0.1545   -2.9478    1.3783 C   0  0  0  0  0  0  0  0  0  0  0  0
    0.8475   -3.5624    2.5936 C   0  0  0  0  0  0  0  0  0  0  0  0
    2.1066   -4.2884    2.1505 C   0  0  0  0  0  0  0  0  0  0  0  0
    3.1001   -3.2920    1.5663 C   0  0  0  0  0  0  0  0  0  0  0  0
    1.7207    2.1098    0.4405 H   0  0  0  0  0  0  0  0  0  0  0  0
   -4.1766    0.7142    1.9424 H   0  0  0  0  0  0  0  0  0  0  0  0
   -4.9501    3.4587    3.7170 H   0  0  0  0  0  0  0  0  0  0  0  0
   -5.5448    1.7870    3.5487 H   0  0  0  0  0  0  0  0  0  0  0  0
   -6.9513    4.0558    4.9076 H   0  0  0  0  0  0  0  0  0  0  0  0
   -7.5316    2.3644    4.7580 H   0  0  0  0  0  0  0  0  0  0  0  0
   -8.5183    3.7089    4.1461 H   0  0  0  0  0  0  0  0  0  0  0  0
   -5.5131    4.7356    1.1735 H   0  0  0  0  0  0  0  0  0  0  0  0
   -4.4377    4.6587   -1.0541 H   0  0  0  0  0  0  0  0  0  0  0  0
   -3.2515    2.6331   -1.7992 H   0  0  0  0  0  0  0  0  0  0  0  0
   -4.7624   -0.6821   -0.9702 H   0  0  0  0  0  0  0  0  0  0  0  0
   -0.6638   -3.9744   -1.1717 H   0  0  0  0  0  0  0  0  0  0  0  0
   -0.0642   -2.9293   -2.4652 H   0  0  0  0  0  0  0  0  0  0  0  0
   -1.9841   -3.3919   -3.8466 H   0  0  0  0  0  0  0  0  0  0  0  0
   -1.3588   -4.9288   -3.2464 H   0  0  0  0  0  0  0  0  0  0  0  0
   -3.0590   -4.8797   -1.3926 H   0  0  0  0  0  0  0  0  0  0  0  0
   -3.8092   -4.9099   -2.9880 H   0  0  0  0  0  0  0  0  0  0  0  0
   -4.3263   -2.5806   -2.9347 H   0  0  0  0  0  0  0  0  0  0  0  0
   -4.7815   -3.2164   -1.3469 H   0  0  0  0  0  0  0  0  0  0  0  0
    3.1145    0.1856   -3.5182 H   0  0  0  0  0  0  0  0  0  0  0  0
    4.7016    1.7410   -4.5781 H   0  0  0  0  0  0  0  0  0  0  0  0
    6.3248    3.0010   -3.2146 H   0  0  0  0  0  0  0  0  0  0  0  0
    6.1087    3.8124   -0.0734 H   0  0  0  0  0  0  0  0  0  0  0  0
    7.4657    3.3054   -1.1177 H   0  0  0  0  0  0  0  0  0  0  0  0
    7.6290    3.7281    1.8056 H   0  0  0  0  0  0  0  0  0  0  0  0
    8.4642    2.1949    2.1347 H   0  0  0  0  0  0  0  0  0  0  0  0
    8.9548    3.1694    0.7329 H   0  0  0  0  0  0  0  0  0  0  0  0
    4.7662    1.1540    0.3453 H   0  0  0  0  0  0  0  0  0  0  0  0
    4.4232   -1.5438    0.0627 H   0  0  0  0  0  0  0  0  0  0  0  0
   -0.2829   -3.7634    0.8002 H   0  0  0  0  0  0  0  0  0  0  0  0
   -0.6640   -2.3180    1.7462 H   0  0  0  0  0  0  0  0  0  0  0  0
    0.1647   -4.2594    3.0923 H   0  0  0  0  0  0  0  0  0  0  0  0
    1.1007   -2.7813    3.3215 H   0  0  0  0  0  0  0  0  0  0  0  0
    1.8517   -5.0479    1.4005 H   0  0  0  0  0  0  0  0  0  0  0  0
    2.5635   -4.8138    2.9965 H   0  0  0  0  0  0  0  0  0  0  0  0
    3.5728   -2.7405    2.3894 H   0  0  0  0  0  0  0  0  0  0  0  0
    3.8897   -3.8446    1.0429 H   0  0  0  0  0  0  0  0  0  0  0  0
  1  2  2  0  0  0  0
  2  3  1  0  0  0  0
  2  4  1  0  0  0  0
  3 44  1  0  0  0  0
  5  4  1  0  0  0  0
  6  5  1  0  0  0  0
  6  7  1  0  0  0  0
  7  8  2  0  0  0  0
  8  9  1  0  0  0  0
  8 45  1  0  0  0  0
  9 10  1  0  0  0  0
 10 47  1  0  0  0  0
 10 46  1  0  0  0  0
 11 10  1  0  0  0  0
 11 12  1  0  0  0  0
 12 49  1  0  0  0  0
 12 48  1  0  0  0  0
 13 51  1  0  0  0  0
 13  9  2  0  0  0  0
 14 13  1  0  0  0  0
 15 14  2  0  0  0  0
 15  7  1  0  0  0  0
 16  6  2  0  0  0  0
 17 18  2  0  0  0  0
 17 16  1  0  0  0  0
 18 23  1  0  0  0  0
 19 18  1  0  0  0  0
 19 55  1  0  0  0  0
 20 21  1  0  0  0  0
 20 19  1  0  0  0  0
 21 22  1  0  0  0  0
 21 59  1  0  0  0  0
 22 17  1  0  0  0  0
 22 62  1  0  0  0  0
 23 24  1  0  0  0  0
 23  5  2  0  0  0  0
 24 39  2  0  0  0  0
 25 27  2  0  0  0  0
 25 24  1  0  0  0  0
 26  2  1  0  0  0  0
 26 25  1  0  0  0  0
 27 37  1  0  0  0  0
 28 27  1  0  0  0  0
 28 36  2  0  0  0  0
 29 28  1  0  0  0  0
 30 29  2  0  0  0  0
 30 31  1  0  0  0  0
 31 32  2  0  0  0  0
 32 36  1  0  0  0  0
 32 33  1  0  0  0  0
 33 66  1  0  0  0  0
 33 34  1  0  0  0  0
 34 35  1  0  0  0  0
 35 68  1  0  0  0  0
 35 69  1  0  0  0  0
 36 71  1  0  0  0  0
 37 72  1  0  0  0  0
 37 38  2  0  0  0  0
 38 43  1  0  0  0  0
 39 38  1  0  0  0  0
 39 40  1  0  0  0  0
 40 74  1  0  0  0  0
 40 41  1  0  0  0  0
 41 75  1  0  0  0  0
 41 76  1  0  0  0  0
 42 41  1  0  0  0  0
 42 78  1  0  0  0  0
 43 42  1  0  0  0  0
 43 79  1  0  0  0  0
 50 12  1  0  0  0  0
 52 14  1  0  0  0  0
 53 15  1  0  0  0  0
 54 16  1  0  0  0  0
 56 19  1  0  0  0  0
 57 20  1  0  0  0  0
 58 20  1  0  0  0  0
 60 21  1  0  0  0  0
 61 22  1  0  0  0  0
 63 29  1  0  0  0  0
 64 30  1  0  0  0  0
 65 31  1  0  0  0  0
 67 33  1  0  0  0  0
 70 35  1  0  0  0  0
 73 40  1  0  0  0  0
 77 42  1  0  0  0  0
 80 43  1  0  0  0  0
M  END
$$$$
