O=P1(O)OC2=C(CC3=CC(C(F)(F)F)=CC(C(F)(F)F)=C3)C=C4C(CCCC4)=C2C5=C(O1)C(CC6=CC(C(F)(F)F)=CC(C(F)(F)F)=C6)=CC7=C5CCCC7
 OpenBabel09032010373D

 84 89  0  0  0  0  0  0  0  0999 V2000
   -1.3645    2.8053    0.4466 O   0  0  0  0  0  0  0  0  0  0  0  0
   -0.7081    1.6363   -0.2443 P   0  0  0  0  0  0  0  0  0  0  0  0
   -1.1231    1.6180   -1.8073 O   0  0  0  0  0  0  0  0  0  0  0  0
    0.9007    1.6682   -0.3116 O   0  0  0  0  0  0  0  0  0  0  0  0
    1.7250    0.6876    0.1967 C   0  0  0  0  0  0  0  0  0  0  0  0
    2.8628    1.1400    0.9084 C   0  0  0  0  0  0  0  0  0  0  0  0
    3.0873    2.5989    1.2817 C   0  0  0  0  0  0  0  0  0  0  0  0
    2.1946    2.9906    2.4417 C   0  0  0  0  0  0  0  0  0  0  0  0
    2.4589    2.5792    3.7539 C   0  0  0  0  0  0  0  0  0  0  0  0
    1.4751    2.6875    4.7541 C   0  0  0  0  0  0  0  0  0  0  0  0
    1.7464    2.1736    6.1467 C   0  0  0  0  0  0  0  0  0  0  0  0
    1.4504    0.8513    6.2741 F   0  0  0  0  0  0  0  0  0  0  0  0
    1.0185    2.8151    7.1023 F   0  0  0  0  0  0  0  0  0  0  0  0
    3.0498    2.3049    6.5206 F   0  0  0  0  0  0  0  0  0  0  0  0
    0.1972    3.1604    4.4093 C   0  0  0  0  0  0  0  0  0  0  0  0
   -0.0703    3.5789    3.1022 C   0  0  0  0  0  0  0  0  0  0  0  0
   -1.4730    3.8221    2.5871 C   0  0  0  0  0  0  0  0  0  0  0  0
   -1.8385    2.8334    1.7046 F   0  0  0  0  0  0  0  0  0  0  0  0
   -1.5818    4.9782    1.8826 F   0  0  0  0  0  0  0  0  0  0  0  0
   -2.4233    3.8611    3.5592 F   0  0  0  0  0  0  0  0  0  0  0  0
    0.9663    3.5821    2.1607 C   0  0  0  0  0  0  0  0  0  0  0  0
    3.7726    0.1996    1.4009 C   0  0  0  0  0  0  0  0  0  0  0  0
    3.5354   -1.1695    1.2758 C   0  0  0  0  0  0  0  0  0  0  0  0
    2.3737   -1.6162    0.6060 C   0  0  0  0  0  0  0  0  0  0  0  0
    2.0108   -3.0996    0.6925 C   0  0  0  0  0  0  0  0  0  0  0  0
    2.7531   -3.8666    1.7859 C   0  0  0  0  0  0  0  0  0  0  0  0
    4.2409   -3.5814    1.6869 C   0  0  0  0  0  0  0  0  0  0  0  0
    4.4975   -2.1075    1.9693 C   0  0  0  0  0  0  0  0  0  0  0  0
    1.4937   -0.6948   -0.0539 C   0  0  0  0  0  0  0  0  0  0  0  0
    0.4083   -1.1843   -0.8590 C   0  0  0  0  0  0  0  0  0  0  0  0
   -0.9233   -0.8890   -0.5081 C   0  0  0  0  0  0  0  0  0  0  0  0
   -1.1575    0.1852    0.3181 O   0  0  0  0  0  0  0  0  0  0  0  0
   -2.0297   -1.5984   -1.0155 C   0  0  0  0  0  0  0  0  0  0  0  0
   -3.4544   -1.3490   -0.5515 C   0  0  0  0  0  0  0  0  0  0  0  0
   -4.0462   -0.0709   -1.1033 C   0  0  0  0  0  0  0  0  0  0  0  0
   -4.0085    1.0889   -0.3246 C   0  0  0  0  0  0  0  0  0  0  0  0
   -4.2391    2.3483   -0.8937 C   0  0  0  0  0  0  0  0  0  0  0  0
   -3.8036    3.5666   -0.1042 C   0  0  0  0  0  0  0  0  0  0  0  0
   -3.8999    4.7258   -0.8140 F   0  0  0  0  0  0  0  0  0  0  0  0
   -4.5300    3.7509    1.0307 F   0  0  0  0  0  0  0  0  0  0  0  0
   -2.4899    3.4646    0.2748 F   0  0  0  0  0  0  0  0  0  0  0  0
   -4.6830    2.4256   -2.2226 C   0  0  0  0  0  0  0  0  0  0  0  0
   -4.8099    1.2602   -3.0018 C   0  0  0  0  0  0  0  0  0  0  0  0
   -5.0971    1.3613   -4.4842 C   0  0  0  0  0  0  0  0  0  0  0  0
   -5.6867    0.2544   -5.0085 F   0  0  0  0  0  0  0  0  0  0  0  0
   -5.8944    2.4139   -4.8073 F   0  0  0  0  0  0  0  0  0  0  0  0
   -3.9322    1.5427   -5.1691 F   0  0  0  0  0  0  0  0  0  0  0  0
   -4.4741    0.0186   -2.4344 C   0  0  0  0  0  0  0  0  0  0  0  0
   -1.7963   -2.5456   -2.0158 C   0  0  0  0  0  0  0  0  0  0  0  0
   -0.5106   -2.7472   -2.5348 C   0  0  0  0  0  0  0  0  0  0  0  0
    0.5857   -2.0434   -1.9871 C   0  0  0  0  0  0  0  0  0  0  0  0
    1.9485   -2.1306   -2.6633 C   0  0  0  0  0  0  0  0  0  0  0  0
    1.9000   -2.7018   -4.0796 C   0  0  0  0  0  0  0  0  0  0  0  0
    1.0785   -3.9803   -4.0921 C   0  0  0  0  0  0  0  0  0  0  0  0
   -0.3674   -3.6702   -3.7229 C   0  0  0  0  0  0  0  0  0  0  0  0
   -1.0793    2.4943   -2.2271 H   0  0  0  0  0  0  0  0  0  0  0  0
    2.9063    3.2380    0.4084 H   0  0  0  0  0  0  0  0  0  0  0  0
    4.1352    2.7756    1.5563 H   0  0  0  0  0  0  0  0  0  0  0  0
    3.4134    2.1095    3.9904 H   0  0  0  0  0  0  0  0  0  0  0  0
   -0.6033    3.1520    5.1503 H   0  0  0  0  0  0  0  0  0  0  0  0
    0.7538    3.9183    1.1459 H   0  0  0  0  0  0  0  0  0  0  0  0
    4.6474    0.5354    1.9569 H   0  0  0  0  0  0  0  0  0  0  0  0
    2.2274   -3.5924   -0.2572 H   0  0  0  0  0  0  0  0  0  0  0  0
    0.9377   -3.2064    0.8910 H   0  0  0  0  0  0  0  0  0  0  0  0
    2.5646   -4.9403    1.6741 H   0  0  0  0  0  0  0  0  0  0  0  0
    2.3788   -3.5744    2.7752 H   0  0  0  0  0  0  0  0  0  0  0  0
    4.7981   -4.1980    2.4008 H   0  0  0  0  0  0  0  0  0  0  0  0
    4.6038   -3.8419    0.6845 H   0  0  0  0  0  0  0  0  0  0  0  0
    4.4142   -1.9359    3.0505 H   0  0  0  0  0  0  0  0  0  0  0  0
    5.5255   -1.8639    1.6751 H   0  0  0  0  0  0  0  0  0  0  0  0
   -3.4752   -1.3404    0.5462 H   0  0  0  0  0  0  0  0  0  0  0  0
   -4.1011   -2.1892   -0.8371 H   0  0  0  0  0  0  0  0  0  0  0  0
   -3.6488    1.0359    0.7050 H   0  0  0  0  0  0  0  0  0  0  0  0
   -4.8641    3.3991   -2.6830 H   0  0  0  0  0  0  0  0  0  0  0  0
   -4.4775   -0.8745   -3.0593 H   0  0  0  0  0  0  0  0  0  0  0  0
   -2.6337   -3.0938   -2.4450 H   0  0  0  0  0  0  0  0  0  0  0  0
    2.6250   -2.7524   -2.0736 H   0  0  0  0  0  0  0  0  0  0  0  0
    2.3903   -1.1282   -2.7222 H   0  0  0  0  0  0  0  0  0  0  0  0
    1.4607   -1.9687   -4.7678 H   0  0  0  0  0  0  0  0  0  0  0  0
    2.9187   -2.9019   -4.4302 H   0  0  0  0  0  0  0  0  0  0  0  0
    1.5023   -4.7000   -3.3803 H   0  0  0  0  0  0  0  0  0  0  0  0
    1.1148   -4.4481   -5.0822 H   0  0  0  0  0  0  0  0  0  0  0  0
   -0.8593   -3.1936   -4.5807 H   0  0  0  0  0  0  0  0  0  0  0  0
   -0.8911   -4.6130   -3.5237 H   0  0  0  0  0  0  0  0  0  0  0  0
  1 18  1  0  0  0  0
  2 32  1  0  0  0  0
  3  2  1  0  0  0  0
  4  2  1  0  0  0  0
  4  5  1  0  0  0  0
  5  6  1  0  0  0  0
  6  7  1  0  0  0  0
  6 22  2  0  0  0  0
  7 58  1  0  0  0  0
  7  8  1  0  0  0  0
  8  9  1  0  0  0  0
  9 59  1  0  0  0  0
  9 10  2  0  0  0  0
 10 11  1  0  0  0  0
 11 12  1  0  0  0  0
 11 14  1  0  0  0  0
 11 13  1  0  0  0  0
 15 10  1  0  0  0  0
 15 60  1  0  0  0  0
 16 15  2  0  0  0  0
 17 16  1  0  0  0  0
 17 20  1  0  0  0  0
 19 17  1  0  0  0  0
 21  8  2  0  0  0  0
 21 16  1  0  0  0  0
 22 62  1  0  0  0  0
 23 22  1  0  0  0  0
 23 28  1  0  0  0  0
 24 25  1  0  0  0  0
 24 23  2  0  0  0  0
 25 64  1  0  0  0  0
 25 26  1  0  0  0  0
 26 66  1  0  0  0  0
 27 26  1  0  0  0  0
 27 28  1  0  0  0  0
 27 67  1  0  0  0  0
 28 69  1  0  0  0  0
 29  5  2  0  0  0  0
 29 24  1  0  0  0  0
 30 31  1  0  0  0  0
 30 29  1  0  0  0  0
 31 32  1  0  0  0  0
 33 34  1  0  0  0  0
 33 31  2  0  0  0  0
 34 71  1  0  0  0  0
 35 34  1  0  0  0  0
 35 36  2  0  0  0  0
 36 73  1  0  0  0  0
 37 36  1  0  0  0  0
 37 38  1  0  0  0  0
 38 40  1  0  0  0  0
 39 38  1  0  0  0  0
 41  1  1  0  0  0  0
 42 37  2  0  0  0  0
 43 48  2  0  0  0  0
 43 42  1  0  0  0  0
 44 43  1  0  0  0  0
 45 44  1  0  0  0  0
 46 44  1  0  0  0  0
 47 44  1  0  0  0  0
 48 35  1  0  0  0  0
 49 33  1  0  0  0  0
 50 49  2  0  0  0  0
 50 51  1  0  0  0  0
 51 30  2  0  0  0  0
 52 77  1  0  0  0  0
 52 51  1  0  0  0  0
 53 52  1  0  0  0  0
 54 53  1  0  0  0  0
 54 55  1  0  0  0  0
 54 81  1  0  0  0  0
 55 84  1  0  0  0  0
 55 50  1  0  0  0  0
 56  3  1  0  0  0  0
 57  7  1  0  0  0  0
 61 21  1  0  0  0  0
 63 25  1  0  0  0  0
 65 26  1  0  0  0  0
 68 27  1  0  0  0  0
 70 28  1  0  0  0  0
 72 34  1  0  0  0  0
 74 42  1  0  0  0  0
 75 48  1  0  0  0  0
 76 49  1  0  0  0  0
 78 52  1  0  0  0  0
 79 53  1  0  0  0  0
 80 53  1  0  0  0  0
 82 54  1  0  0  0  0
 83 55  1  0  0  0  0
M  RAD  2  17   2  38   2
M  END
$$$$
