O=P1(O)OC2=C([Si](C3=CC=C(C(C)(C)C)C=C3)(C4=CC=C(C(C)(C)C)C=C4)C5=CC=C(C(C)(C)C)C=C5)C=C6C(CCCC6)=C2C7=C(O1)C([Si](C8=CC=C(C(C)(C)C)C=C8)(C9=CC=C(C(C)(C)C)C=C9)C%10=CC=C(C(C)(C)C)C=C%10)=CC%11=C7CCCC%11
 OpenBabel09032010373D

184194  0  0  0  0  0  0  0  0999 V2000
    0.5935    1.8762    0.4380 O   0  0  0  0  0  0  0  0  0  0  0  0
    0.3041    0.4120    0.3134 P   0  0  0  0  0  0  0  0  0  0  0  0
    0.8087   -0.4191    1.5951 O   0  0  0  0  0  0  0  0  0  0  0  0
   -1.2550    0.0014    0.2574 O   0  0  0  0  0  0  0  0  0  0  0  0
   -1.9358    0.2630   -0.9007 C   0  0  0  0  0  0  0  0  0  0  0  0
   -2.9086    1.2810   -0.8986 C   0  0  0  0  0  0  0  0  0  0  0  0
   -3.4097    2.3070    0.5896 Si  0  0  0  0  0  0  0  0  0  0  0  0
   -2.4183    1.9428    2.1325 C   0  0  0  0  0  0  0  0  0  0  0  0
   -1.5552    2.8840    2.7142 C   0  0  0  0  0  0  0  0  0  0  0  0
   -0.8041    2.5860    3.8617 C   0  0  0  0  0  0  0  0  0  0  0  0
   -0.8827    1.3350    4.4857 C   0  0  0  0  0  0  0  0  0  0  0  0
   -0.0722    0.9777    5.7428 C   0  0  0  0  0  0  0  0  0  0  0  0
   -1.0336    0.6103    6.8936 C   0  0  0  0  0  0  0  0  0  0  0  0
    0.8446   -0.2278    5.4425 C   0  0  0  0  0  0  0  0  0  0  0  0
    0.8315    2.1241    6.2503 C   0  0  0  0  0  0  0  0  0  0  0  0
   -1.7560    0.3966    3.9128 C   0  0  0  0  0  0  0  0  0  0  0  0
   -2.5206    0.6979    2.7778 C   0  0  0  0  0  0  0  0  0  0  0  0
   -3.1620    4.0818    0.0555 C   0  0  0  0  0  0  0  0  0  0  0  0
   -4.1915    5.0326    0.0845 C   0  0  0  0  0  0  0  0  0  0  0  0
   -3.9752    6.3486   -0.3465 C   0  0  0  0  0  0  0  0  0  0  0  0
   -2.7256    6.7765   -0.8277 C   0  0  0  0  0  0  0  0  0  0  0  0
   -2.5291    8.2288   -1.2917 C   0  0  0  0  0  0  0  0  0  0  0  0
   -3.4919    8.5354   -2.4591 C   0  0  0  0  0  0  0  0  0  0  0  0
   -2.8261    9.1924   -0.1222 C   0  0  0  0  0  0  0  0  0  0  0  0
   -1.0980    8.5389   -1.7861 C   0  0  0  0  0  0  0  0  0  0  0  0
   -1.6997    5.8241   -0.8619 C   0  0  0  0  0  0  0  0  0  0  0  0
   -1.9130    4.5066   -0.4348 C   0  0  0  0  0  0  0  0  0  0  0  0
   -5.1998    2.0139    1.0495 C   0  0  0  0  0  0  0  0  0  0  0  0
   -6.0746    1.2388    0.2729 C   0  0  0  0  0  0  0  0  0  0  0  0
   -7.4132    1.0413    0.6501 C   0  0  0  0  0  0  0  0  0  0  0  0
   -7.9358    1.6014    1.8237 C   0  0  0  0  0  0  0  0  0  0  0  0
   -9.3952    1.4022    2.2666 C   0  0  0  0  0  0  0  0  0  0  0  0
  -10.2312    0.5404    1.2936 C   0  0  0  0  0  0  0  0  0  0  0  0
  -10.0960    2.7735    2.3783 C   0  0  0  0  0  0  0  0  0  0  0  0
   -9.4289    0.7011    3.6419 C   0  0  0  0  0  0  0  0  0  0  0  0
   -7.0574    2.3677    2.6070 C   0  0  0  0  0  0  0  0  0  0  0  0
   -5.7229    2.5683    2.2319 C   0  0  0  0  0  0  0  0  0  0  0  0
   -3.5062    1.5649   -2.1397 C   0  0  0  0  0  0  0  0  0  0  0  0
   -3.1618    0.8761   -3.3130 C   0  0  0  0  0  0  0  0  0  0  0  0
   -2.2043   -0.1601   -3.2640 C   0  0  0  0  0  0  0  0  0  0  0  0
   -1.7580   -0.8223   -4.5590 C   0  0  0  0  0  0  0  0  0  0  0  0
   -2.0814   -0.0128   -5.8132 C   0  0  0  0  0  0  0  0  0  0  0  0
   -3.5394    0.4142   -5.7872 C   0  0  0  0  0  0  0  0  0  0  0  0
   -3.7858    1.3468   -4.6077 C   0  0  0  0  0  0  0  0  0  0  0  0
   -1.6175   -0.5468   -2.0210 C   0  0  0  0  0  0  0  0  0  0  0  0
   -0.7445   -1.6887   -1.8708 C   0  0  0  0  0  0  0  0  0  0  0  0
    0.5815   -1.5608   -1.3548 C   0  0  0  0  0  0  0  0  0  0  0  0
    1.0009   -0.3193   -0.9422 O   0  0  0  0  0  0  0  0  0  0  0  0
    1.5191   -2.6183   -1.3010 C   0  0  0  0  0  0  0  0  0  0  0  0
    3.3017   -2.4452   -0.7269 Si  0  0  0  0  0  0  0  0  0  0  0  0
    4.3381   -3.6220   -1.7651 C   0  0  0  0  0  0  0  0  0  0  0  0
    4.1491   -3.7102   -3.1574 C   0  0  0  0  0  0  0  0  0  0  0  0
    4.9024   -4.5868   -3.9506 C   0  0  0  0  0  0  0  0  0  0  0  0
    5.8797   -5.4185   -3.3908 C   0  0  0  0  0  0  0  0  0  0  0  0
    6.7252   -6.3921   -4.2277 C   0  0  0  0  0  0  0  0  0  0  0  0
    8.2215   -6.0420   -4.0775 C   0  0  0  0  0  0  0  0  0  0  0  0
    6.3992   -6.3635   -5.7383 C   0  0  0  0  0  0  0  0  0  0  0  0
    6.4903   -7.8374   -3.7376 C   0  0  0  0  0  0  0  0  0  0  0  0
    6.0664   -5.3332   -2.0006 C   0  0  0  0  0  0  0  0  0  0  0  0
    5.3145   -4.4579   -1.2050 C   0  0  0  0  0  0  0  0  0  0  0  0
    3.4268   -2.9335    1.0744 C   0  0  0  0  0  0  0  0  0  0  0  0
    4.5926   -2.6731    1.8185 C   0  0  0  0  0  0  0  0  0  0  0  0
    4.6892   -3.0046    3.1774 C   0  0  0  0  0  0  0  0  0  0  0  0
    3.6235   -3.6091    3.8567 C   0  0  0  0  0  0  0  0  0  0  0  0
    3.6884   -3.9780    5.3482 C   0  0  0  0  0  0  0  0  0  0  0  0
    5.0280   -3.6099    6.0254 C   0  0  0  0  0  0  0  0  0  0  0  0
    2.5715   -3.2377    6.1156 C   0  0  0  0  0  0  0  0  0  0  0  0
    3.4959   -5.5008    5.5152 C   0  0  0  0  0  0  0  0  0  0  0  0
    2.4642   -3.8809    3.1115 C   0  0  0  0  0  0  0  0  0  0  0  0
    2.3672   -3.5536    1.7529 C   0  0  0  0  0  0  0  0  0  0  0  0
    3.9565   -0.7140   -0.9530 C   0  0  0  0  0  0  0  0  0  0  0  0
    3.9265    0.2226    0.0947 C   0  0  0  0  0  0  0  0  0  0  0  0
    4.3992    1.5304   -0.0744 C   0  0  0  0  0  0  0  0  0  0  0  0
    4.9302    1.9704   -1.2970 C   0  0  0  0  0  0  0  0  0  0  0  0
    5.4280    3.4165   -1.4495 C   0  0  0  0  0  0  0  0  0  0  0  0
    4.2618    4.3952   -1.1923 C   0  0  0  0  0  0  0  0  0  0  0  0
    5.9940    3.7374   -2.8514 C   0  0  0  0  0  0  0  0  0  0  0  0
    6.5548    3.6897   -0.4298 C   0  0  0  0  0  0  0  0  0  0  0  0
    4.9661    1.0384   -2.3416 C   0  0  0  0  0  0  0  0  0  0  0  0
    4.4890   -0.2713   -2.1745 C   0  0  0  0  0  0  0  0  0  0  0  0
    1.0604   -3.8892   -1.6915 C   0  0  0  0  0  0  0  0  0  0  0  0
   -0.2505   -4.0916   -2.1261 C   0  0  0  0  0  0  0  0  0  0  0  0
   -1.1547   -3.0098   -2.2019 C   0  0  0  0  0  0  0  0  0  0  0  0
   -2.6103   -3.3924   -2.4224 C   0  0  0  0  0  0  0  0  0  0  0  0
   -2.8192   -4.4643   -3.4988 C   0  0  0  0  0  0  0  0  0  0  0  0
   -1.6535   -5.4391   -3.6688 C   0  0  0  0  0  0  0  0  0  0  0  0
   -0.7330   -5.4835   -2.4556 C   0  0  0  0  0  0  0  0  0  0  0  0
    0.5134    0.0194    2.4186 H   0  0  0  0  0  0  0  0  0  0  0  0
   -1.4370    3.8799    2.2873 H   0  0  0  0  0  0  0  0  0  0  0  0
   -0.1550    3.3711    4.2409 H   0  0  0  0  0  0  0  0  0  0  0  0
   -1.6417   -0.2706    6.6603 H   0  0  0  0  0  0  0  0  0  0  0  0
   -1.7210    1.4361    7.1123 H   0  0  0  0  0  0  0  0  0  0  0  0
   -0.4812    0.3837    7.8131 H   0  0  0  0  0  0  0  0  0  0  0  0
    0.2754   -1.1258    5.1787 H   0  0  0  0  0  0  0  0  0  0  0  0
    1.5215   -0.0103    4.6077 H   0  0  0  0  0  0  0  0  0  0  0  0
    1.4600   -0.4829    6.3132 H   0  0  0  0  0  0  0  0  0  0  0  0
    1.3875    1.8219    7.1459 H   0  0  0  0  0  0  0  0  0  0  0  0
    0.2457    3.0108    6.5191 H   0  0  0  0  0  0  0  0  0  0  0  0
    1.5711    2.4187    5.4966 H   0  0  0  0  0  0  0  0  0  0  0  0
   -1.8511   -0.5998    4.3372 H   0  0  0  0  0  0  0  0  0  0  0  0
   -3.1817   -0.0772    2.3867 H   0  0  0  0  0  0  0  0  0  0  0  0
   -5.1905    4.7753    0.4330 H   0  0  0  0  0  0  0  0  0  0  0  0
   -4.8145    7.0395   -0.3019 H   0  0  0  0  0  0  0  0  0  0  0  0
   -4.5431    8.4475   -2.1634 H   0  0  0  0  0  0  0  0  0  0  0  0
   -3.3485    9.5563   -2.8321 H   0  0  0  0  0  0  0  0  0  0  0  0
   -3.3273    7.8478   -3.2972 H   0  0  0  0  0  0  0  0  0  0  0  0
   -2.1786    8.9810    0.7371 H   0  0  0  0  0  0  0  0  0  0  0  0
   -2.6593   10.2351   -0.4170 H   0  0  0  0  0  0  0  0  0  0  0  0
   -3.8635    9.1193    0.2221 H   0  0  0  0  0  0  0  0  0  0  0  0
   -0.3545    8.3762   -0.9971 H   0  0  0  0  0  0  0  0  0  0  0  0
   -0.8247    7.9171   -2.6466 H   0  0  0  0  0  0  0  0  0  0  0  0
   -1.0075    9.5847   -2.1033 H   0  0  0  0  0  0  0  0  0  0  0  0
   -0.7044    6.0702   -1.2220 H   0  0  0  0  0  0  0  0  0  0  0  0
   -1.0697    3.8153   -0.4932 H   0  0  0  0  0  0  0  0  0  0  0  0
   -5.7404    0.7597   -0.6455 H   0  0  0  0  0  0  0  0  0  0  0  0
   -8.0300    0.4319   -0.0057 H   0  0  0  0  0  0  0  0  0  0  0  0
  -11.2623    0.4295    1.6503 H   0  0  0  0  0  0  0  0  0  0  0  0
  -10.2824    0.9927    0.2963 H   0  0  0  0  0  0  0  0  0  0  0  0
   -9.8165   -0.4691    1.1902 H   0  0  0  0  0  0  0  0  0  0  0  0
  -11.1494    2.6574    2.6588 H   0  0  0  0  0  0  0  0  0  0  0  0
   -9.6325    3.4157    3.1352 H   0  0  0  0  0  0  0  0  0  0  0  0
  -10.0623    3.3125    1.4240 H   0  0  0  0  0  0  0  0  0  0  0  0
   -8.9501    1.3001    4.4243 H   0  0  0  0  0  0  0  0  0  0  0  0
  -10.4596    0.5158    3.9660 H   0  0  0  0  0  0  0  0  0  0  0  0
   -8.9120   -0.2652    3.6048 H   0  0  0  0  0  0  0  0  0  0  0  0
   -7.3979    2.8246    3.5339 H   0  0  0  0  0  0  0  0  0  0  0  0
   -5.0960    3.1716    2.8900 H   0  0  0  0  0  0  0  0  0  0  0  0
   -4.2378    2.3728   -2.2203 H   0  0  0  0  0  0  0  0  0  0  0  0
   -0.6750   -0.9912   -4.5412 H   0  0  0  0  0  0  0  0  0  0  0  0
   -2.2508   -1.7934   -4.6486 H   0  0  0  0  0  0  0  0  0  0  0  0
   -1.4334    0.8708   -5.8710 H   0  0  0  0  0  0  0  0  0  0  0  0
   -1.8809   -0.6192   -6.7036 H   0  0  0  0  0  0  0  0  0  0  0  0
   -4.1830   -0.4710   -5.7065 H   0  0  0  0  0  0  0  0  0  0  0  0
   -3.8060    0.9210   -6.7213 H   0  0  0  0  0  0  0  0  0  0  0  0
   -4.8676    1.4680   -4.4744 H   0  0  0  0  0  0  0  0  0  0  0  0
   -3.3689    2.3349   -4.8416 H   0  0  0  0  0  0  0  0  0  0  0  0
    3.3995   -3.0955   -3.6571 H   0  0  0  0  0  0  0  0  0  0  0  0
    4.6948   -4.5942   -5.0171 H   0  0  0  0  0  0  0  0  0  0  0  0
    8.5698   -6.1454   -3.0440 H   0  0  0  0  0  0  0  0  0  0  0  0
    8.4181   -5.0093   -4.3892 H   0  0  0  0  0  0  0  0  0  0  0  0
    8.8454   -6.7007   -4.6930 H   0  0  0  0  0  0  0  0  0  0  0  0
    7.0272   -7.0723   -6.2915 H   0  0  0  0  0  0  0  0  0  0  0  0
    6.5759   -5.3717   -6.1705 H   0  0  0  0  0  0  0  0  0  0  0  0
    5.3560   -6.6395   -5.9313 H   0  0  0  0  0  0  0  0  0  0  0  0
    6.8021   -7.9780   -2.6969 H   0  0  0  0  0  0  0  0  0  0  0  0
    5.4298   -8.1085   -3.8028 H   0  0  0  0  0  0  0  0  0  0  0  0
    7.0561   -8.5565   -4.3414 H   0  0  0  0  0  0  0  0  0  0  0  0
    6.8088   -5.9553   -1.5047 H   0  0  0  0  0  0  0  0  0  0  0  0
    5.5153   -4.4584   -0.1356 H   0  0  0  0  0  0  0  0  0  0  0  0
    5.4531   -2.1927    1.3507 H   0  0  0  0  0  0  0  0  0  0  0  0
    5.6235   -2.7697    3.6814 H   0  0  0  0  0  0  0  0  0  0  0  0
    5.0246   -3.8892    7.0859 H   0  0  0  0  0  0  0  0  0  0  0  0
    5.8726   -4.1302    5.5587 H   0  0  0  0  0  0  0  0  0  0  0  0
    5.2217   -2.5319    5.9770 H   0  0  0  0  0  0  0  0  0  0  0  0
    2.6178   -3.4560    7.1890 H   0  0  0  0  0  0  0  0  0  0  0  0
    2.6610   -2.1519    5.9919 H   0  0  0  0  0  0  0  0  0  0  0  0
    1.5717   -3.5263    5.7734 H   0  0  0  0  0  0  0  0  0  0  0  0
    3.5723   -5.7958    6.5683 H   0  0  0  0  0  0  0  0  0  0  0  0
    2.5156   -5.8362    5.1593 H   0  0  0  0  0  0  0  0  0  0  0  0
    4.2571   -6.0583    4.9565 H   0  0  0  0  0  0  0  0  0  0  0  0
    1.6037   -4.3532    3.5808 H   0  0  0  0  0  0  0  0  0  0  0  0
    1.4312   -3.7855    1.2475 H   0  0  0  0  0  0  0  0  0  0  0  0
    3.5182   -0.0409    1.0703 H   0  0  0  0  0  0  0  0  0  0  0  0
    4.3312    2.2069    0.7748 H   0  0  0  0  0  0  0  0  0  0  0  0
    4.5817    5.4352   -1.3267 H   0  0  0  0  0  0  0  0  0  0  0  0
    3.8666    4.3106   -0.1740 H   0  0  0  0  0  0  0  0  0  0  0  0
    3.4313    4.2096   -1.8837 H   0  0  0  0  0  0  0  0  0  0  0  0
    6.3393    4.7766   -2.9096 H   0  0  0  0  0  0  0  0  0  0  0  0
    6.8508    3.0989   -3.0962 H   0  0  0  0  0  0  0  0  0  0  0  0
    5.2360    3.6064   -3.6325 H   0  0  0  0  0  0  0  0  0  0  0  0
    6.9523    4.7052   -0.5424 H   0  0  0  0  0  0  0  0  0  0  0  0
    6.2094    3.5947    0.6055 H   0  0  0  0  0  0  0  0  0  0  0  0
    7.3872    2.9888   -0.5646 H   0  0  0  0  0  0  0  0  0  0  0  0
    5.3586    1.3003   -3.3202 H   0  0  0  0  0  0  0  0  0  0  0  0
    4.5432   -0.9323   -3.0368 H   0  0  0  0  0  0  0  0  0  0  0  0
    1.7226   -4.7555   -1.6387 H   0  0  0  0  0  0  0  0  0  0  0  0
   -3.2536   -2.5399   -2.6515 H   0  0  0  0  0  0  0  0  0  0  0  0
   -2.9793   -3.7814   -1.4629 H   0  0  0  0  0  0  0  0  0  0  0  0
   -3.7343   -5.0209   -3.2608 H   0  0  0  0  0  0  0  0  0  0  0  0
   -3.0112   -3.9859   -4.4669 H   0  0  0  0  0  0  0  0  0  0  0  0
   -1.0692   -5.1319   -4.5469 H   0  0  0  0  0  0  0  0  0  0  0  0
   -2.0359   -6.4419   -3.8914 H   0  0  0  0  0  0  0  0  0  0  0  0
   -1.2557   -5.8984   -1.5856 H   0  0  0  0  0  0  0  0  0  0  0  0
    0.1143   -6.1426   -2.6781 H   0  0  0  0  0  0  0  0  0  0  0  0
  2  1  2  0  0  0  0
  2  3  1  0  0  0  0
  3 88  1  0  0  0  0
  4  2  1  0  0  0  0
  5  6  1  0  0  0  0
  5  4  1  0  0  0  0
  6  7  1  0  0  0  0
  7 28  1  0  0  0  0
  7  8  1  0  0  0  0
  8  9  2  0  0  0  0
  8 17  1  0  0  0  0
  9 10  1  0  0  0  0
 10 90  1  0  0  0  0
 10 11  2  0  0  0  0
 11 12  1  0  0  0  0
 12 15  1  0  0  0  0
 12 13  1  0  0  0  0
 13 92  1  0  0  0  0
 13 93  1  0  0  0  0
 14 12  1  0  0  0  0
 14 96  1  0  0  0  0
 15 98  1  0  0  0  0
 15 97  1  0  0  0  0
 16100  1  0  0  0  0
 16 11  1  0  0  0  0
 17 16  2  0  0  0  0
 18 19  1  0  0  0  0
 18  7  1  0  0  0  0
 19102  1  0  0  0  0
 20103  1  0  0  0  0
 20 19  2  0  0  0  0
 21 20  1  0  0  0  0
 22 21  1  0  0  0  0
 22 24  1  0  0  0  0
 23104  1  0  0  0  0
 23 22  1  0  0  0  0
 24109  1  0  0  0  0
 24107  1  0  0  0  0
 25 22  1  0  0  0  0
 25110  1  0  0  0  0
 26 21  2  0  0  0  0
 26 27  1  0  0  0  0
 27 18  2  0  0  0  0
 28 37  2  0  0  0  0
 29 30  2  0  0  0  0
 29 28  1  0  0  0  0
 30 31  1  0  0  0  0
 31 32  1  0  0  0  0
 31 36  2  0  0  0  0
 32 34  1  0  0  0  0
 32 35  1  0  0  0  0
 33117  1  0  0  0  0
 33 32  1  0  0  0  0
 34120  1  0  0  0  0
 34121  1  0  0  0  0
 35124  1  0  0  0  0
 35123  1  0  0  0  0
 36126  1  0  0  0  0
 37 36  1  0  0  0  0
 37127  1  0  0  0  0
 38  6  2  0  0  0  0
 39 40  2  0  0  0  0
 39 38  1  0  0  0  0
 40 45  1  0  0  0  0
 41129  1  0  0  0  0
 41 40  1  0  0  0  0
 42 43  1  0  0  0  0
 42 41  1  0  0  0  0
 43133  1  0  0  0  0
 43 44  1  0  0  0  0
 44135  1  0  0  0  0
 44 39  1  0  0  0  0
 45 46  1  0  0  0  0
 45  5  2  0  0  0  0
 46 47  2  0  0  0  0
 47 49  1  0  0  0  0
 47 48  1  0  0  0  0
 48  2  1  0  0  0  0
 49 50  1  0  0  0  0
 50 61  1  0  0  0  0
 51 60  1  0  0  0  0
 51 50  1  0  0  0  0
 52 51  2  0  0  0  0
 53 54  2  0  0  0  0
 53 52  1  0  0  0  0
 54 59  1  0  0  0  0
 55 56  1  0  0  0  0
 55 58  1  0  0  0  0
 55 54  1  0  0  0  0
 56139  1  0  0  0  0
 57 55  1  0  0  0  0
 58145  1  0  0  0  0
 59148  1  0  0  0  0
 59 60  2  0  0  0  0
 60149  1  0  0  0  0
 61 70  2  0  0  0  0
 61 62  1  0  0  0  0
 62 63  2  0  0  0  0
 63151  1  0  0  0  0
 63 64  1  0  0  0  0
 64 65  1  0  0  0  0
 65 68  1  0  0  0  0
 65 66  1  0  0  0  0
 65 67  1  0  0  0  0
 66152  1  0  0  0  0
 67155  1  0  0  0  0
 68158  1  0  0  0  0
 69161  1  0  0  0  0
 69 64  2  0  0  0  0
 70 69  1  0  0  0  0
 71 50  1  0  0  0  0
 71 72  2  0  0  0  0
 72163  1  0  0  0  0
 73 72  1  0  0  0  0
 73164  1  0  0  0  0
 74 73  2  0  0  0  0
 75 74  1  0  0  0  0
 75 76  1  0  0  0  0
 75 78  1  0  0  0  0
 76166  1  0  0  0  0
 77 75  1  0  0  0  0
 78172  1  0  0  0  0
 79 80  2  0  0  0  0
 79 74  1  0  0  0  0
 80 71  1  0  0  0  0
 81176  1  0  0  0  0
 81 49  2  0  0  0  0
 82 81  1  0  0  0  0
 83 82  2  0  0  0  0
 83 46  1  0  0  0  0
 84 83  1  0  0  0  0
 84178  1  0  0  0  0
 85179  1  0  0  0  0
 85 84  1  0  0  0  0
 86 85  1  0  0  0  0
 86 87  1  0  0  0  0
 87 82  1  0  0  0  0
 87183  1  0  0  0  0
 89  9  1  0  0  0  0
 91 13  1  0  0  0  0
 94 14  1  0  0  0  0
 95 14  1  0  0  0  0
 99 15  1  0  0  0  0
101 17  1  0  0  0  0
105 23  1  0  0  0  0
106 23  1  0  0  0  0
108 24  1  0  0  0  0
111 25  1  0  0  0  0
112 25  1  0  0  0  0
113 26  1  0  0  0  0
114 27  1  0  0  0  0
115 29  1  0  0  0  0
116 30  1  0  0  0  0
118 33  1  0  0  0  0
119 33  1  0  0  0  0
122 34  1  0  0  0  0
125 35  1  0  0  0  0
128 38  1  0  0  0  0
130 41  1  0  0  0  0
131 42  1  0  0  0  0
132 42  1  0  0  0  0
134 43  1  0  0  0  0
136 44  1  0  0  0  0
137 52  1  0  0  0  0
138 53  1  0  0  0  0
140 56  1  0  0  0  0
141 56  1  0  0  0  0
142 57  1  0  0  0  0
143 57  1  0  0  0  0
144 57  1  0  0  0  0
146 58  1  0  0  0  0
147 58  1  0  0  0  0
150 62  1  0  0  0  0
153 66  1  0  0  0  0
154 66  1  0  0  0  0
156 67  1  0  0  0  0
157 67  1  0  0  0  0
159 68  1  0  0  0  0
160 68  1  0  0  0  0
162 70  1  0  0  0  0
165 76  1  0  0  0  0
167 76  1  0  0  0  0
168 77  1  0  0  0  0
169 77  1  0  0  0  0
170 77  1  0  0  0  0
171 78  1  0  0  0  0
173 78  1  0  0  0  0
174 79  1  0  0  0  0
175 80  1  0  0  0  0
177 84  1  0  0  0  0
180 85  1  0  0  0  0
181 86  1  0  0  0  0
182 86  1  0  0  0  0
184 87  1  0  0  0  0
M  END
$$$$
