O=P1(O)OC2=C(C3=C(C)C=C(C)C=C3C)C=C4C(C=CC=C4)=C2C5=C(O1)[C@@]([C@@]6=C(C)C=C(C)C=C6C)=CC7=C5C=CC=C7
 OpenBabel09032010383D

 76 82  0  0  0  0  0  0  0  0999 V2000
   -0.5545    1.8101   -2.1773 O   0  0  0  0  0  0  0  0  0  0  0  0
    0.0085    1.3933   -0.8550 P   0  0  0  0  0  0  0  0  0  0  0  0
    0.7929    2.6064   -0.1471 O   0  0  0  0  0  0  0  0  0  0  0  0
   -1.0419    0.9199    0.2693 O   0  0  0  0  0  0  0  0  0  0  0  0
   -1.5488   -0.3563    0.1633 C   0  0  0  0  0  0  0  0  0  0  0  0
   -2.9151   -0.4750   -0.1465 C   0  0  0  0  0  0  0  0  0  0  0  0
   -3.7851    0.7020   -0.3500 C   0  0  0  0  0  0  0  0  0  0  0  0
   -4.3063    1.4125    0.7610 C   0  0  0  0  0  0  0  0  0  0  0  0
   -3.9791    1.0157    2.1786 C   0  0  0  0  0  0  0  0  0  0  0  0
   -5.1309    2.5314    0.5533 C   0  0  0  0  0  0  0  0  0  0  0  0
   -5.4607    2.9571   -0.7351 C   0  0  0  0  0  0  0  0  0  0  0  0
   -6.3744    4.1286   -0.9395 C   0  0  0  0  0  0  0  0  0  0  0  0
   -4.9724    2.2404   -1.8297 C   0  0  0  0  0  0  0  0  0  0  0  0
   -4.1271    1.1306   -1.6564 C   0  0  0  0  0  0  0  0  0  0  0  0
   -3.6512    0.4015   -2.8877 C   0  0  0  0  0  0  0  0  0  0  0  0
   -3.4554   -1.7582   -0.2504 C   0  0  0  0  0  0  0  0  0  0  0  0
   -2.6617   -2.8966   -0.0917 C   0  0  0  0  0  0  0  0  0  0  0  0
   -1.2842   -2.7661    0.2304 C   0  0  0  0  0  0  0  0  0  0  0  0
   -0.5368   -3.9706    0.2798 C   0  0  0  0  0  0  0  0  0  0  0  0
   -1.1201   -5.2267    0.0918 C   0  0  0  0  0  0  0  0  0  0  0  0
   -2.4765   -5.3241   -0.1723 C   0  0  0  0  0  0  0  0  0  0  0  0
   -3.2403   -4.1647   -0.2698 C   0  0  0  0  0  0  0  0  0  0  0  0
   -0.7052   -1.4609    0.4380 C   0  0  0  0  0  0  0  0  0  0  0  0
    0.6436   -1.2428    0.9260 C   0  0  0  0  0  0  0  0  0  0  0  0
    1.5361   -0.3964    0.2215 C   0  0  0  0  0  0  0  0  0  0  0  0
    1.1165    0.2291   -0.9315 O   0  0  0  0  0  0  0  0  0  0  0  0
    2.8886   -0.2210    0.5708 C   0  0  0  0  0  0  0  0  0  0  0  0
    3.7912    0.6673   -0.1933 C   0  0  0  0  0  0  0  0  0  0  0  0
    4.1203    1.9552    0.3026 C   0  0  0  0  0  0  0  0  0  0  0  0
    3.6263    2.4485    1.6407 C   0  0  0  0  0  0  0  0  0  0  0  0
    4.9743    2.7931   -0.4351 C   0  0  0  0  0  0  0  0  0  0  0  0
    5.4860    2.3957   -1.6718 C   0  0  0  0  0  0  0  0  0  0  0  0
    6.4123    3.2938   -2.4370 C   0  0  0  0  0  0  0  0  0  0  0  0
    5.1755    1.1225   -2.1543 C   0  0  0  0  0  0  0  0  0  0  0  0
    4.3458    0.2500   -1.4288 C   0  0  0  0  0  0  0  0  0  0  0  0
    4.0517   -1.1084   -2.0143 C   0  0  0  0  0  0  0  0  0  0  0  0
    3.3727   -0.9031    1.6880 C   0  0  0  0  0  0  0  0  0  0  0  0
    2.5341   -1.6942    2.4758 C   0  0  0  0  0  0  0  0  0  0  0  0
    1.1656   -1.8518    2.1268 C   0  0  0  0  0  0  0  0  0  0  0  0
    0.3694   -2.5814    3.0471 C   0  0  0  0  0  0  0  0  0  0  0  0
    0.8980   -3.1785    4.1950 C   0  0  0  0  0  0  0  0  0  0  0  0
    2.2475   -3.0511    4.4787 C   0  0  0  0  0  0  0  0  0  0  0  0
    3.0581   -2.3065    3.6272 C   0  0  0  0  0  0  0  0  0  0  0  0
    1.3418    3.0724   -0.8039 H   0  0  0  0  0  0  0  0  0  0  0  0
   -4.1619   -0.0518    2.3372 H   0  0  0  0  0  0  0  0  0  0  0  0
   -4.6061    1.5538    2.8980 H   0  0  0  0  0  0  0  0  0  0  0  0
   -2.9350    1.2491    2.4079 H   0  0  0  0  0  0  0  0  0  0  0  0
   -5.5219    3.0775    1.4099 H   0  0  0  0  0  0  0  0  0  0  0  0
   -7.4150    3.7911   -0.9678 H   0  0  0  0  0  0  0  0  0  0  0  0
   -6.2608    4.8588   -0.1313 H   0  0  0  0  0  0  0  0  0  0  0  0
   -6.1440    4.6453   -1.8772 H   0  0  0  0  0  0  0  0  0  0  0  0
   -5.2447    2.5536   -2.8362 H   0  0  0  0  0  0  0  0  0  0  0  0
   -2.6047    0.0971   -2.7976 H   0  0  0  0  0  0  0  0  0  0  0  0
   -4.2707   -0.4845   -3.0586 H   0  0  0  0  0  0  0  0  0  0  0  0
   -3.7156    1.0409   -3.7749 H   0  0  0  0  0  0  0  0  0  0  0  0
   -4.5141   -1.8610   -0.4867 H   0  0  0  0  0  0  0  0  0  0  0  0
    0.5370   -3.9462    0.4571 H   0  0  0  0  0  0  0  0  0  0  0  0
   -0.5066   -6.1220    0.1477 H   0  0  0  0  0  0  0  0  0  0  0  0
   -2.9381   -6.2964   -0.3199 H   0  0  0  0  0  0  0  0  0  0  0  0
   -4.2995   -4.2594   -0.5026 H   0  0  0  0  0  0  0  0  0  0  0  0
    4.2462    2.0340    2.4420 H   0  0  0  0  0  0  0  0  0  0  0  0
    2.5820    2.1749    1.8148 H   0  0  0  0  0  0  0  0  0  0  0  0
    3.6760    3.5413    1.6997 H   0  0  0  0  0  0  0  0  0  0  0  0
    5.2431    3.7706   -0.0371 H   0  0  0  0  0  0  0  0  0  0  0  0
    7.4479    3.1060   -2.1375 H   0  0  0  0  0  0  0  0  0  0  0  0
    6.3189    3.1245   -3.5149 H   0  0  0  0  0  0  0  0  0  0  0  0
    6.1758    4.3471   -2.2530 H   0  0  0  0  0  0  0  0  0  0  0  0
    5.5906    0.7991   -3.1078 H   0  0  0  0  0  0  0  0  0  0  0  0
    3.0389   -1.1338   -2.4269 H   0  0  0  0  0  0  0  0  0  0  0  0
    4.1615   -1.8934   -1.2594 H   0  0  0  0  0  0  0  0  0  0  0  0
    4.7498   -1.3515   -2.8229 H   0  0  0  0  0  0  0  0  0  0  0  0
    4.4206   -0.7818    1.9610 H   0  0  0  0  0  0  0  0  0  0  0  0
   -0.7023   -2.6864    2.8877 H   0  0  0  0  0  0  0  0  0  0  0  0
    0.2466   -3.7344    4.8641 H   0  0  0  0  0  0  0  0  0  0  0  0
    2.6665   -3.5110    5.3693 H   0  0  0  0  0  0  0  0  0  0  0  0
    4.1105   -2.1934    3.8817 H   0  0  0  0  0  0  0  0  0  0  0  0
  1  2  2  0  0  0  0
  2  3  1  0  0  0  0
  2  4  1  0  0  0  0
  5  4  1  0  0  0  0
  5 23  2  0  0  0  0
  6  5  1  0  0  0  0
  7  6  1  0  0  0  0
  7  8  2  0  0  0  0
  8  9  1  0  0  0  0
  9 45  1  0  0  0  0
  9 47  1  0  0  0  0
  9 46  1  0  0  0  0
 10  8  1  0  0  0  0
 10 48  1  0  0  0  0
 11 10  2  0  0  0  0
 12 11  1  0  0  0  0
 12 50  1  0  0  0  0
 13 14  2  0  0  0  0
 13 11  1  0  0  0  0
 14  7  1  0  0  0  0
 15 53  1  0  0  0  0
 15 14  1  0  0  0  0
 16  6  2  0  0  0  0
 16 17  1  0  0  0  0
 17 18  2  0  0  0  0
 18 19  1  0  0  0  0
 18 23  1  0  0  0  0
 19 57  1  0  0  0  0
 20 58  1  0  0  0  0
 20 19  2  0  0  0  0
 21 20  1  0  0  0  0
 22 21  2  0  0  0  0
 22 17  1  0  0  0  0
 23 24  1  0  0  0  0
 24 39  2  0  0  0  0
 25 27  2  0  0  0  0
 25 24  1  0  0  0  0
 26  2  1  0  0  0  0
 26 25  1  0  0  0  0
 27 37  1  0  0  0  0
 28 29  1  0  0  0  0
 28 27  1  0  0  0  0
 29 30  1  0  0  0  0
 30 63  1  0  0  0  0
 30 62  1  0  0  0  0
 30 61  1  0  0  0  0
 31 64  1  0  0  0  0
 31 29  2  0  0  0  0
 32 31  1  0  0  0  0
 33 67  1  0  0  0  0
 33 65  1  0  0  0  0
 33 32  1  0  0  0  0
 34 32  2  0  0  0  0
 34 35  1  0  0  0  0
 35 28  2  0  0  0  0
 36 35  1  0  0  0  0
 36 70  1  0  0  0  0
 37 72  1  0  0  0  0
 37 38  2  0  0  0  0
 38 43  1  0  0  0  0
 39 38  1  0  0  0  0
 39 40  1  0  0  0  0
 40 41  2  0  0  0  0
 41 42  1  0  0  0  0
 41 74  1  0  0  0  0
 42 75  1  0  0  0  0
 43 76  1  0  0  0  0
 43 42  2  0  0  0  0
 44  3  1  0  0  0  0
 49 12  1  0  0  0  0
 51 12  1  0  0  0  0
 52 13  1  0  0  0  0
 54 15  1  0  0  0  0
 55 15  1  0  0  0  0
 56 16  1  0  0  0  0
 59 21  1  0  0  0  0
 60 22  1  0  0  0  0
 66 33  1  0  0  0  0
 68 34  1  0  0  0  0
 69 36  1  0  0  0  0
 71 36  1  0  0  0  0
 73 40  1  0  0  0  0
M  END
$$$$
