O=P1(O)OC2=C(C3=CC=CC=C3)C=C4C(C=CC=C4)=C2C5=C(O1)C(C6=CC=CC=C6)=CC7=C5C=CC=C7
 OpenBabel09032010373D

 58 64  0  0  0  0  0  0  0  0999 V2000
   -0.9255   -3.3131    0.4099 O   0  0  0  0  0  0  0  0  0  0  0  0
   -0.1081   -2.2249   -0.2128 P   0  0  0  0  0  0  0  0  0  0  0  0
    0.9445   -2.8095   -1.2802 O   0  0  0  0  0  0  0  0  0  0  0  0
   -0.9089   -1.1024   -1.0460 O   0  0  0  0  0  0  0  0  0  0  0  0
   -1.5214   -0.1020   -0.3224 C   0  0  0  0  0  0  0  0  0  0  0  0
   -2.9256   -0.0974   -0.3047 C   0  0  0  0  0  0  0  0  0  0  0  0
   -3.7220   -1.0997   -1.0218 C   0  0  0  0  0  0  0  0  0  0  0  0
   -4.0572   -2.3200   -0.4174 C   0  0  0  0  0  0  0  0  0  0  0  0
   -4.8186   -3.2695   -1.1021 C   0  0  0  0  0  0  0  0  0  0  0  0
   -5.2569   -3.0091   -2.3988 C   0  0  0  0  0  0  0  0  0  0  0  0
   -4.9324   -1.8013   -3.0129 C   0  0  0  0  0  0  0  0  0  0  0  0
   -4.1694   -0.8528   -2.3286 C   0  0  0  0  0  0  0  0  0  0  0  0
   -3.5695    0.9105    0.4140 C   0  0  0  0  0  0  0  0  0  0  0  0
   -2.8472    1.8733    1.1244 C   0  0  0  0  0  0  0  0  0  0  0  0
   -1.4266    1.8661    1.0943 C   0  0  0  0  0  0  0  0  0  0  0  0
   -0.7775    2.8210    1.9177 C   0  0  0  0  0  0  0  0  0  0  0  0
   -1.4798    3.7656    2.6711 C   0  0  0  0  0  0  0  0  0  0  0  0
   -2.8648    3.7784    2.6426 C   0  0  0  0  0  0  0  0  0  0  0  0
   -3.5432    2.8331    1.8789 C   0  0  0  0  0  0  0  0  0  0  0  0
   -0.7221    0.8900    0.2998 C   0  0  0  0  0  0  0  0  0  0  0  0
    0.7141    0.8903    0.1022 C   0  0  0  0  0  0  0  0  0  0  0  0
    1.4701   -0.2760    0.3782 C   0  0  0  0  0  0  0  0  0  0  0  0
    0.8230   -1.4100    0.8181 O   0  0  0  0  0  0  0  0  0  0  0  0
    2.8727   -0.3459    0.2933 C   0  0  0  0  0  0  0  0  0  0  0  0
    3.6179   -1.5805    0.5929 C   0  0  0  0  0  0  0  0  0  0  0  0
    3.6014   -2.1447    1.8781 C   0  0  0  0  0  0  0  0  0  0  0  0
    4.2963   -3.3247    2.1524 C   0  0  0  0  0  0  0  0  0  0  0  0
    5.0204   -3.9580    1.1451 C   0  0  0  0  0  0  0  0  0  0  0  0
    5.0506   -3.4128   -0.1361 C   0  0  0  0  0  0  0  0  0  0  0  0
    4.3549   -2.2328   -0.4094 C   0  0  0  0  0  0  0  0  0  0  0  0
    3.5569    0.8025   -0.1077 C   0  0  0  0  0  0  0  0  0  0  0  0
    2.8779    1.9747   -0.4530 C   0  0  0  0  0  0  0  0  0  0  0  0
    1.4597    2.0282   -0.3787 C   0  0  0  0  0  0  0  0  0  0  0  0
    0.8545    3.2207   -0.8519 C   0  0  0  0  0  0  0  0  0  0  0  0
    1.5975    4.3164   -1.2999 C   0  0  0  0  0  0  0  0  0  0  0  0
    2.9810    4.2528   -1.3102 C   0  0  0  0  0  0  0  0  0  0  0  0
    3.6158    3.0855   -0.8965 C   0  0  0  0  0  0  0  0  0  0  0  0
    1.3705   -3.6113   -0.9262 H   0  0  0  0  0  0  0  0  0  0  0  0
   -3.7136   -2.5446    0.5909 H   0  0  0  0  0  0  0  0  0  0  0  0
   -5.0612   -4.2141   -0.6227 H   0  0  0  0  0  0  0  0  0  0  0  0
   -5.8464   -3.7499   -2.9320 H   0  0  0  0  0  0  0  0  0  0  0  0
   -5.2674   -1.5979   -4.0263 H   0  0  0  0  0  0  0  0  0  0  0  0
   -3.9161    0.0827   -2.8228 H   0  0  0  0  0  0  0  0  0  0  0  0
   -4.6590    0.9226    0.4360 H   0  0  0  0  0  0  0  0  0  0  0  0
    0.3082    2.8348    1.9960 H   0  0  0  0  0  0  0  0  0  0  0  0
   -0.9372    4.4825    3.2816 H   0  0  0  0  0  0  0  0  0  0  0  0
   -3.4187    4.5088    3.2259 H   0  0  0  0  0  0  0  0  0  0  0  0
   -4.6318    2.8428    1.8889 H   0  0  0  0  0  0  0  0  0  0  0  0
    3.0394   -1.6640    2.6771 H   0  0  0  0  0  0  0  0  0  0  0  0
    4.2707   -3.7463    3.1540 H   0  0  0  0  0  0  0  0  0  0  0  0
    5.5630   -4.8751    1.3599 H   0  0  0  0  0  0  0  0  0  0  0  0
    5.6156   -3.9042   -0.9241 H   0  0  0  0  0  0  0  0  0  0  0  0
    4.3804   -1.8268   -1.4193 H   0  0  0  0  0  0  0  0  0  0  0  0
    4.6445    0.7710   -0.1694 H   0  0  0  0  0  0  0  0  0  0  0  0
   -0.2295    3.3112   -0.8927 H   0  0  0  0  0  0  0  0  0  0  0  0
    1.0867    5.2114   -1.6450 H   0  0  0  0  0  0  0  0  0  0  0  0
    3.5666    5.0996   -1.6571 H   0  0  0  0  0  0  0  0  0  0  0  0
    4.7028    3.0448   -0.9383 H   0  0  0  0  0  0  0  0  0  0  0  0
  2  1  2  0  0  0  0
  2 23  1  0  0  0  0
  3 38  1  0  0  0  0
  3  2  1  0  0  0  0
  4  5  1  0  0  0  0
  4  2  1  0  0  0  0
  5  6  2  0  0  0  0
  5 20  1  0  0  0  0
  6 13  1  0  0  0  0
  7  8  1  0  0  0  0
  7  6  1  0  0  0  0
  8 39  1  0  0  0  0
  9 40  1  0  0  0  0
  9  8  2  0  0  0  0
 10  9  1  0  0  0  0
 11 10  2  0  0  0  0
 11 12  1  0  0  0  0
 12  7  2  0  0  0  0
 13 44  1  0  0  0  0
 13 14  2  0  0  0  0
 14 19  1  0  0  0  0
 15 14  1  0  0  0  0
 15 16  1  0  0  0  0
 16 45  1  0  0  0  0
 16 17  2  0  0  0  0
 17 46  1  0  0  0  0
 18 17  1  0  0  0  0
 18 47  1  0  0  0  0
 19 48  1  0  0  0  0
 19 18  2  0  0  0  0
 20 15  2  0  0  0  0
 21 20  1  0  0  0  0
 21 22  2  0  0  0  0
 22 23  1  0  0  0  0
 24 22  1  0  0  0  0
 24 25  1  0  0  0  0
 25 26  2  0  0  0  0
 26 27  1  0  0  0  0
 26 49  1  0  0  0  0
 27 50  1  0  0  0  0
 28 51  1  0  0  0  0
 28 27  2  0  0  0  0
 29 28  1  0  0  0  0
 30 29  2  0  0  0  0
 30 25  1  0  0  0  0
 31 24  2  0  0  0  0
 32 33  1  0  0  0  0
 32 31  1  0  0  0  0
 33 21  1  0  0  0  0
 34 33  2  0  0  0  0
 35 34  1  0  0  0  0
 36 35  2  0  0  0  0
 36 37  1  0  0  0  0
 37 32  2  0  0  0  0
 41 10  1  0  0  0  0
 42 11  1  0  0  0  0
 43 12  1  0  0  0  0
 52 29  1  0  0  0  0
 53 30  1  0  0  0  0
 54 31  1  0  0  0  0
 55 34  1  0  0  0  0
 56 35  1  0  0  0  0
 57 36  1  0  0  0  0
 58 37  1  0  0  0  0
M  END
$$$$
