O=P1(O)OC2=C(C3=C(C=CC4=CC=CC(C=C5)=C46)C6=C5C=C3)C=C7C(C=CC=C7)=C2C8=C(O1)C(C9=CC=C(C=C%10)C%11=C9C=CC%12=CC=CC%10=C%11%12)=CC%13=C8C=CC=C%13
 OpenBabel09032010373D

 86 98  0  0  0  0  0  0  0  0999 V2000
   -0.3333   -2.0329   -1.7279 O   0  0  0  0  0  0  0  0  0  0  0  0
   -0.0264   -0.6565   -1.2253 P   0  0  0  0  0  0  0  0  0  0  0  0
    0.3756    0.3247   -2.4358 O   0  0  0  0  0  0  0  0  0  0  0  0
    1.2056   -0.5567   -0.1941 O   0  0  0  0  0  0  0  0  0  0  0  0
    1.3924    0.5953    0.5385 C   0  0  0  0  0  0  0  0  0  0  0  0
    2.5970    1.2853    0.3154 C   0  0  0  0  0  0  0  0  0  0  0  0
    3.6025    0.8270   -0.6625 C   0  0  0  0  0  0  0  0  0  0  0  0
    4.6298   -0.0984   -0.3244 C   0  0  0  0  0  0  0  0  0  0  0  0
    4.7586   -0.6752    0.9574 C   0  0  0  0  0  0  0  0  0  0  0  0
    5.7800   -1.5786    1.2596 C   0  0  0  0  0  0  0  0  0  0  0  0
    6.7185   -1.9404    0.2907 C   0  0  0  0  0  0  0  0  0  0  0  0
    7.7496   -2.8447    0.5829 C   0  0  0  0  0  0  0  0  0  0  0  0
    8.6816   -3.1965   -0.3912 C   0  0  0  0  0  0  0  0  0  0  0  0
    8.5946   -2.6489   -1.6697 C   0  0  0  0  0  0  0  0  0  0  0  0
    7.5715   -1.7446   -1.9910 C   0  0  0  0  0  0  0  0  0  0  0  0
    7.4716   -1.1920   -3.2726 C   0  0  0  0  0  0  0  0  0  0  0  0
    6.4488   -0.2945   -3.5819 C   0  0  0  0  0  0  0  0  0  0  0  0
    6.6224   -1.3834   -1.0044 C   0  0  0  0  0  0  0  0  0  0  0  0
    5.5805   -0.4674   -1.3122 C   0  0  0  0  0  0  0  0  0  0  0  0
    5.5024    0.0754   -2.6172 C   0  0  0  0  0  0  0  0  0  0  0  0
    4.4807    0.9762   -2.9298 C   0  0  0  0  0  0  0  0  0  0  0  0
    3.5464    1.3475   -1.9658 C   0  0  0  0  0  0  0  0  0  0  0  0
    2.8443    2.4404    1.0594 C   0  0  0  0  0  0  0  0  0  0  0  0
    1.9166    2.9217    1.9852 C   0  0  0  0  0  0  0  0  0  0  0  0
    0.7058    2.2153    2.2149 C   0  0  0  0  0  0  0  0  0  0  0  0
   -0.2161    2.8315    3.1007 C   0  0  0  0  0  0  0  0  0  0  0  0
    0.0640    4.0265    3.7693 C   0  0  0  0  0  0  0  0  0  0  0  0
    1.2757    4.6647    3.5618 C   0  0  0  0  0  0  0  0  0  0  0  0
    2.1926    4.1181    2.6692 C   0  0  0  0  0  0  0  0  0  0  0  0
    0.4444    0.9746    1.5254 C   0  0  0  0  0  0  0  0  0  0  0  0
   -0.7055    0.1380    1.8049 C   0  0  0  0  0  0  0  0  0  0  0  0
   -1.5695   -0.2401    0.7525 C   0  0  0  0  0  0  0  0  0  0  0  0
   -1.2526    0.1258   -0.5351 O   0  0  0  0  0  0  0  0  0  0  0  0
   -2.7815   -0.9251    0.9387 C   0  0  0  0  0  0  0  0  0  0  0  0
   -3.6720   -1.2482   -0.1908 C   0  0  0  0  0  0  0  0  0  0  0  0
   -3.5616   -2.5194   -0.7780 C   0  0  0  0  0  0  0  0  0  0  0  0
   -4.3512   -2.8794   -1.8669 C   0  0  0  0  0  0  0  0  0  0  0  0
   -5.2739   -1.9771   -2.4019 C   0  0  0  0  0  0  0  0  0  0  0  0
   -6.0629   -2.3335   -3.5032 C   0  0  0  0  0  0  0  0  0  0  0  0
   -6.9791   -1.4324   -4.0459 C   0  0  0  0  0  0  0  0  0  0  0  0
   -5.4076   -0.6899   -1.8277 C   0  0  0  0  0  0  0  0  0  0  0  0
   -4.6110   -0.3155   -0.7144 C   0  0  0  0  0  0  0  0  0  0  0  0
   -4.7923    0.9805   -0.1842 C   0  0  0  0  0  0  0  0  0  0  0  0
   -5.7153    1.8770   -0.7280 C   0  0  0  0  0  0  0  0  0  0  0  0
   -6.4954    1.5137   -1.8278 C   0  0  0  0  0  0  0  0  0  0  0  0
   -7.4210    2.4065   -2.3875 C   0  0  0  0  0  0  0  0  0  0  0  0
   -8.1868    2.0327   -3.4893 C   0  0  0  0  0  0  0  0  0  0  0  0
   -8.0428    0.7615   -4.0413 C   0  0  0  0  0  0  0  0  0  0  0  0
   -7.1290   -0.1530   -3.4995 C   0  0  0  0  0  0  0  0  0  0  0  0
   -6.3437    0.2228   -2.3835 C   0  0  0  0  0  0  0  0  0  0  0  0
   -3.1303   -1.3017    2.2353 C   0  0  0  0  0  0  0  0  0  0  0  0
   -2.2880   -1.0347    3.3185 C   0  0  0  0  0  0  0  0  0  0  0  0
   -1.0653   -0.3370    3.1189 C   0  0  0  0  0  0  0  0  0  0  0  0
   -0.2311   -0.1952    4.2568 C   0  0  0  0  0  0  0  0  0  0  0  0
   -0.6056   -0.6501    5.5241 C   0  0  0  0  0  0  0  0  0  0  0  0
   -1.8262   -1.2826    5.6973 C   0  0  0  0  0  0  0  0  0  0  0  0
   -2.6582   -1.4794    4.5989 C   0  0  0  0  0  0  0  0  0  0  0  0
   -0.1249    0.0731   -3.2335 H   0  0  0  0  0  0  0  0  0  0  0  0
    4.0516   -0.4301    1.7475 H   0  0  0  0  0  0  0  0  0  0  0  0
    5.8308   -1.9962    2.2626 H   0  0  0  0  0  0  0  0  0  0  0  0
    7.8335   -3.2827    1.5750 H   0  0  0  0  0  0  0  0  0  0  0  0
    9.4762   -3.8985   -0.1537 H   0  0  0  0  0  0  0  0  0  0  0  0
    9.3341   -2.9350   -2.4150 H   0  0  0  0  0  0  0  0  0  0  0  0
    8.1903   -1.4566   -4.0452 H   0  0  0  0  0  0  0  0  0  0  0  0
    6.3993    0.1150   -4.5886 H   0  0  0  0  0  0  0  0  0  0  0  0
    4.3994    1.3997   -3.9280 H   0  0  0  0  0  0  0  0  0  0  0  0
    2.7579    2.0477   -2.2375 H   0  0  0  0  0  0  0  0  0  0  0  0
    3.7760    2.9806    0.8920 H   0  0  0  0  0  0  0  0  0  0  0  0
   -1.1942    2.3872    3.2770 H   0  0  0  0  0  0  0  0  0  0  0  0
   -0.6717    4.4542    4.4454 H   0  0  0  0  0  0  0  0  0  0  0  0
    1.5018    5.5939    4.0776 H   0  0  0  0  0  0  0  0  0  0  0  0
    3.1297    4.6460    2.4996 H   0  0  0  0  0  0  0  0  0  0  0  0
   -2.8333   -3.2352   -0.3981 H   0  0  0  0  0  0  0  0  0  0  0  0
   -4.2262   -3.8699   -2.2986 H   0  0  0  0  0  0  0  0  0  0  0  0
   -5.9696   -3.3198   -3.9530 H   0  0  0  0  0  0  0  0  0  0  0  0
   -7.5753   -1.7407   -4.9021 H   0  0  0  0  0  0  0  0  0  0  0  0
   -4.2068    1.3158    0.6696 H   0  0  0  0  0  0  0  0  0  0  0  0
   -5.8117    2.8644   -0.2823 H   0  0  0  0  0  0  0  0  0  0  0  0
   -7.5540    3.4025   -1.9698 H   0  0  0  0  0  0  0  0  0  0  0  0
   -8.8992    2.7328   -3.9178 H   0  0  0  0  0  0  0  0  0  0  0  0
   -8.6512    0.4893   -4.9006 H   0  0  0  0  0  0  0  0  0  0  0  0
   -4.0683   -1.8334    2.3927 H   0  0  0  0  0  0  0  0  0  0  0  0
    0.7495    0.2697    4.1680 H   0  0  0  0  0  0  0  0  0  0  0  0
    0.0648   -0.5123    6.3685 H   0  0  0  0  0  0  0  0  0  0  0  0
   -2.1244   -1.6392    6.6795 H   0  0  0  0  0  0  0  0  0  0  0  0
   -3.6024   -2.0004    4.7495 H   0  0  0  0  0  0  0  0  0  0  0  0
  1  2  2  0  0  0  0
  2 33  1  0  0  0  0
  2  4  1  0  0  0  0
  3  2  1  0  0  0  0
  4  5  1  0  0  0  0
  5 30  1  0  0  0  0
  6  5  2  0  0  0  0
  6 23  1  0  0  0  0
  7  8  1  0  0  0  0
  7  6  1  0  0  0  0
  8  9  1  0  0  0  0
  9 10  2  0  0  0  0
  9 59  1  0  0  0  0
 10 60  1  0  0  0  0
 11 12  1  0  0  0  0
 11 10  1  0  0  0  0
 12 61  1  0  0  0  0
 13 62  1  0  0  0  0
 13 12  2  0  0  0  0
 14 13  1  0  0  0  0
 15 14  2  0  0  0  0
 15 18  1  0  0  0  0
 16 15  1  0  0  0  0
 17 16  2  0  0  0  0
 17 20  1  0  0  0  0
 18 11  2  0  0  0  0
 19 18  1  0  0  0  0
 19  8  2  0  0  0  0
 20 19  1  0  0  0  0
 21 20  2  0  0  0  0
 21 22  1  0  0  0  0
 22  7  2  0  0  0  0
 23 24  2  0  0  0  0
 24 25  1  0  0  0  0
 24 29  1  0  0  0  0
 25 26  1  0  0  0  0
 26 69  1  0  0  0  0
 26 27  2  0  0  0  0
 27 70  1  0  0  0  0
 28 27  1  0  0  0  0
 28 71  1  0  0  0  0
 29 28  2  0  0  0  0
 30 31  1  0  0  0  0
 30 25  2  0  0  0  0
 31 53  2  0  0  0  0
 32 34  2  0  0  0  0
 32 31  1  0  0  0  0
 33 32  1  0  0  0  0
 34 51  1  0  0  0  0
 35 34  1  0  0  0  0
 36 73  1  0  0  0  0
 36 35  2  0  0  0  0
 37 36  1  0  0  0  0
 38 37  2  0  0  0  0
 38 41  1  0  0  0  0
 39 38  1  0  0  0  0
 40 39  2  0  0  0  0
 40 49  1  0  0  0  0
 41 42  2  0  0  0  0
 42 35  1  0  0  0  0
 42 43  1  0  0  0  0
 43 77  1  0  0  0  0
 44 78  1  0  0  0  0
 44 43  2  0  0  0  0
 45 44  1  0  0  0  0
 46 79  1  0  0  0  0
 46 45  1  0  0  0  0
 47 46  2  0  0  0  0
 48 49  2  0  0  0  0
 48 47  1  0  0  0  0
 49 50  1  0  0  0  0
 50 45  2  0  0  0  0
 50 41  1  0  0  0  0
 51 82  1  0  0  0  0
 51 52  2  0  0  0  0
 52 57  1  0  0  0  0
 53 52  1  0  0  0  0
 53 54  1  0  0  0  0
 54 55  2  0  0  0  0
 55 56  1  0  0  0  0
 55 84  1  0  0  0  0
 56 85  1  0  0  0  0
 57 86  1  0  0  0  0
 57 56  2  0  0  0  0
 58  3  1  0  0  0  0
 63 14  1  0  0  0  0
 64 16  1  0  0  0  0
 65 17  1  0  0  0  0
 66 21  1  0  0  0  0
 67 22  1  0  0  0  0
 68 23  1  0  0  0  0
 72 29  1  0  0  0  0
 74 37  1  0  0  0  0
 75 39  1  0  0  0  0
 76 40  1  0  0  0  0
 80 47  1  0  0  0  0
 81 48  1  0  0  0  0
 83 54  1  0  0  0  0
M  END
$$$$
