O=P1(O)OC2=C(C3=CC=C(OC)C=C3)C=C4C(C=CC=C4)=C2C5=C(O1)C(C6=CC=C(OC)C=C6)=CC7=C5C=CC=C7
 OpenBabel09032010383D

 66 72  0  0  0  0  0  0  0  0999 V2000
    0.4130    2.7528    0.6046 O   0  0  0  0  0  0  0  0  0  0  0  0
   -0.0850    1.5371   -0.1129 P   0  0  0  0  0  0  0  0  0  0  0  0
   -0.9416    1.9328   -1.4162 O   0  0  0  0  0  0  0  0  0  0  0  0
    1.0334    0.5282   -0.6842 O   0  0  0  0  0  0  0  0  0  0  0  0
    1.6059   -0.3480    0.2126 C   0  0  0  0  0  0  0  0  0  0  0  0
    2.9603   -0.1450    0.5262 C   0  0  0  0  0  0  0  0  0  0  0  0
    3.7513    0.9414   -0.0643 C   0  0  0  0  0  0  0  0  0  0  0  0
    4.5734    0.7044   -1.1735 C   0  0  0  0  0  0  0  0  0  0  0  0
    5.3331    1.7374   -1.7300 C   0  0  0  0  0  0  0  0  0  0  0  0
    5.2867    3.0253   -1.1934 C   0  0  0  0  0  0  0  0  0  0  0  0
    6.0749    3.9416   -1.8335 O   0  0  0  0  0  0  0  0  0  0  0  0
    6.0280    5.2773   -1.3474 C   0  0  0  0  0  0  0  0  0  0  0  0
    4.4730    3.2712   -0.0886 C   0  0  0  0  0  0  0  0  0  0  0  0
    3.7143    2.2358    0.4717 C   0  0  0  0  0  0  0  0  0  0  0  0
    3.5649   -1.0273    1.4224 C   0  0  0  0  0  0  0  0  0  0  0  0
    2.8454   -2.0654    2.0205 C   0  0  0  0  0  0  0  0  0  0  0  0
    1.4784   -2.2691    1.6911 C   0  0  0  0  0  0  0  0  0  0  0  0
    0.8050   -3.2870    2.4141 C   0  0  0  0  0  0  0  0  0  0  0  0
    1.4515   -4.0962    3.3523 C   0  0  0  0  0  0  0  0  0  0  0  0
    2.7977   -3.9044    3.6171 C   0  0  0  0  0  0  0  0  0  0  0  0
    3.4875   -2.8901    2.9597 C   0  0  0  0  0  0  0  0  0  0  0  0
    0.8358   -1.4311    0.7084 C   0  0  0  0  0  0  0  0  0  0  0  0
   -0.5066   -1.6552    0.2077 C   0  0  0  0  0  0  0  0  0  0  0  0
   -1.4642   -0.6103    0.2407 C   0  0  0  0  0  0  0  0  0  0  0  0
   -1.1007    0.6222    0.7376 O   0  0  0  0  0  0  0  0  0  0  0  0
   -2.8085   -0.7596   -0.1473 C   0  0  0  0  0  0  0  0  0  0  0  0
   -3.7719    0.3531   -0.0964 C   0  0  0  0  0  0  0  0  0  0  0  0
   -4.3509    0.8534   -1.2737 C   0  0  0  0  0  0  0  0  0  0  0  0
   -5.2585    1.9197   -1.2403 C   0  0  0  0  0  0  0  0  0  0  0  0
   -5.6043    2.5061   -0.0244 C   0  0  0  0  0  0  0  0  0  0  0  0
   -6.4693    3.5502    0.1495 O   0  0  0  0  0  0  0  0  0  0  0  0
   -7.0972    4.0682   -1.0166 C   0  0  0  0  0  0  0  0  0  0  0  0
   -5.0352    2.0162    1.1520 C   0  0  0  0  0  0  0  0  0  0  0  0
   -4.1304    0.9508    1.1190 C   0  0  0  0  0  0  0  0  0  0  0  0
   -3.2153   -2.0117   -0.6108 C   0  0  0  0  0  0  0  0  0  0  0  0
   -2.3162   -3.0756   -0.7280 C   0  0  0  0  0  0  0  0  0  0  0  0
   -0.9567   -2.9084   -0.3495 C   0  0  0  0  0  0  0  0  0  0  0  0
   -0.0983   -4.0084   -0.6071 C   0  0  0  0  0  0  0  0  0  0  0  0
   -0.5602   -5.2180   -1.1330 C   0  0  0  0  0  0  0  0  0  0  0  0
   -1.9020   -5.3678   -1.4416 C   0  0  0  0  0  0  0  0  0  0  0  0
   -2.7721   -4.2994   -1.2474 C   0  0  0  0  0  0  0  0  0  0  0  0
   -1.5109    2.6990   -1.2199 H   0  0  0  0  0  0  0  0  0  0  0  0
    4.6225   -0.2877   -1.6168 H   0  0  0  0  0  0  0  0  0  0  0  0
    5.9623    1.5352   -2.5930 H   0  0  0  0  0  0  0  0  0  0  0  0
    6.3934    5.3349   -0.3168 H   0  0  0  0  0  0  0  0  0  0  0  0
    5.0194    5.6947   -1.4342 H   0  0  0  0  0  0  0  0  0  0  0  0
    6.6933    5.8830   -1.9703 H   0  0  0  0  0  0  0  0  0  0  0  0
    4.3981    4.2542    0.3636 H   0  0  0  0  0  0  0  0  0  0  0  0
    3.0819    2.4533    1.3312 H   0  0  0  0  0  0  0  0  0  0  0  0
    4.6148   -0.8790    1.6748 H   0  0  0  0  0  0  0  0  0  0  0  0
   -0.2592   -3.4599    2.2628 H   0  0  0  0  0  0  0  0  0  0  0  0
    0.8952   -4.8696    3.8752 H   0  0  0  0  0  0  0  0  0  0  0  0
    3.3078   -4.5291    4.3453 H   0  0  0  0  0  0  0  0  0  0  0  0
    4.5386   -2.7387    3.1991 H   0  0  0  0  0  0  0  0  0  0  0  0
   -4.0853    0.4183   -2.2360 H   0  0  0  0  0  0  0  0  0  0  0  0
   -5.6721    2.2652   -2.1818 H   0  0  0  0  0  0  0  0  0  0  0  0
   -7.7608    4.8809   -0.7060 H   0  0  0  0  0  0  0  0  0  0  0  0
   -7.7113    3.3053   -1.5066 H   0  0  0  0  0  0  0  0  0  0  0  0
   -6.3591    4.4868   -1.7087 H   0  0  0  0  0  0  0  0  0  0  0  0
   -5.2968    2.4662    2.1067 H   0  0  0  0  0  0  0  0  0  0  0  0
   -3.7039    0.5912    2.0536 H   0  0  0  0  0  0  0  0  0  0  0  0
   -4.2555   -2.1502   -0.9050 H   0  0  0  0  0  0  0  0  0  0  0  0
    0.9699   -3.9339   -0.4107 H   0  0  0  0  0  0  0  0  0  0  0  0
    0.1360   -6.0349   -1.3038 H   0  0  0  0  0  0  0  0  0  0  0  0
   -2.2692   -6.3050   -1.8508 H   0  0  0  0  0  0  0  0  0  0  0  0
   -3.8177   -4.4272   -1.5220 H   0  0  0  0  0  0  0  0  0  0  0  0
  2  1  2  0  0  0  0
  2 25  1  0  0  0  0
  3 42  1  0  0  0  0
  3  2  1  0  0  0  0
  4  2  1  0  0  0  0
  4  5  1  0  0  0  0
  5  6  2  0  0  0  0
  5 22  1  0  0  0  0
  6 15  1  0  0  0  0
  7 14  1  0  0  0  0
  7  6  1  0  0  0  0
  8  7  2  0  0  0  0
  9 10  2  0  0  0  0
  9  8  1  0  0  0  0
 10 13  1  0  0  0  0
 11 12  1  0  0  0  0
 11 10  1  0  0  0  0
 12 45  1  0  0  0  0
 13 48  1  0  0  0  0
 13 14  2  0  0  0  0
 14 49  1  0  0  0  0
 15 50  1  0  0  0  0
 15 16  2  0  0  0  0
 16 21  1  0  0  0  0
 17 16  1  0  0  0  0
 17 18  1  0  0  0  0
 18 19  2  0  0  0  0
 19 20  1  0  0  0  0
 19 52  1  0  0  0  0
 20 53  1  0  0  0  0
 21 54  1  0  0  0  0
 21 20  2  0  0  0  0
 22 17  2  0  0  0  0
 23 24  1  0  0  0  0
 23 22  1  0  0  0  0
 24 25  1  0  0  0  0
 26 27  1  0  0  0  0
 26 24  2  0  0  0  0
 27 34  2  0  0  0  0
 28 29  2  0  0  0  0
 28 27  1  0  0  0  0
 29 30  1  0  0  0  0
 30 31  1  0  0  0  0
 30 33  2  0  0  0  0
 32 57  1  0  0  0  0
 32 31  1  0  0  0  0
 33 60  1  0  0  0  0
 34 33  1  0  0  0  0
 34 61  1  0  0  0  0
 35 26  1  0  0  0  0
 36 35  2  0  0  0  0
 36 37  1  0  0  0  0
 37 23  2  0  0  0  0
 38 63  1  0  0  0  0
 38 37  1  0  0  0  0
 39 38  2  0  0  0  0
 40 41  2  0  0  0  0
 40 39  1  0  0  0  0
 41 36  1  0  0  0  0
 43  8  1  0  0  0  0
 44  9  1  0  0  0  0
 46 12  1  0  0  0  0
 47 12  1  0  0  0  0
 51 18  1  0  0  0  0
 55 28  1  0  0  0  0
 56 29  1  0  0  0  0
 58 32  1  0  0  0  0
 59 32  1  0  0  0  0
 62 35  1  0  0  0  0
 64 39  1  0  0  0  0
 65 40  1  0  0  0  0
 66 41  1  0  0  0  0
M  END
$$$$
