O=P1(O)OC2=C(C3=C(C(C)C)C=C(C4=CC=C(C(C)(C)C)C=C4)C=C3C(C)C)C=C5C(C=CC=C5)=[C@]2[C@]6=C(O1)C(C7=C(C(C)C)C=C(C8=CC=C(C(C)(C)C)C=C8)C=C7C(C)C)=CC9=C6C=CC=C9
 OpenBabel09032010373D

138146  0  0  0  0  0  0  0  0999 V2000
    0.2458   -0.2069    1.3980 O   0  0  0  0  0  0  0  0  0  0  0  0
   -0.1192   -0.6454    0.0166 P   0  0  0  0  0  0  0  0  0  0  0  0
   -0.7004    0.5693   -0.8595 O   0  0  0  0  0  0  0  0  0  0  0  0
    1.0616   -1.2455   -0.8967 O   0  0  0  0  0  0  0  0  0  0  0  0
    1.4491   -2.5466   -0.6618 C   0  0  0  0  0  0  0  0  0  0  0  0
    2.7447   -2.7414   -0.1476 C   0  0  0  0  0  0  0  0  0  0  0  0
    3.6593   -1.6166    0.1495 C   0  0  0  0  0  0  0  0  0  0  0  0
    3.8397   -1.1593    1.4881 C   0  0  0  0  0  0  0  0  0  0  0  0
    3.1165   -1.7983    2.6782 C   0  0  0  0  0  0  0  0  0  0  0  0
    2.5982   -0.7815    3.7076 C   0  0  0  0  0  0  0  0  0  0  0  0
    4.0291   -2.8088    3.3819 C   0  0  0  0  0  0  0  0  0  0  0  0
    4.7355   -0.0984    1.7337 C   0  0  0  0  0  0  0  0  0  0  0  0
    5.4346    0.5452    0.7074 C   0  0  0  0  0  0  0  0  0  0  0  0
    6.3303    1.6746    0.9962 C   0  0  0  0  0  0  0  0  0  0  0  0
    5.8695    2.8004    1.6904 C   0  0  0  0  0  0  0  0  0  0  0  0
    6.7159    3.8820    1.9686 C   0  0  0  0  0  0  0  0  0  0  0  0
    8.0590    3.8797    1.5638 C   0  0  0  0  0  0  0  0  0  0  0  0
    9.0179    5.0479    1.8516 C   0  0  0  0  0  0  0  0  0  0  0  0
    8.3646    6.2161    2.6242 C   0  0  0  0  0  0  0  0  0  0  0  0
   10.2060    4.5469    2.7009 C   0  0  0  0  0  0  0  0  0  0  0  0
    9.5509    5.6219    0.5212 C   0  0  0  0  0  0  0  0  0  0  0  0
    8.5144    2.7454    0.8666 C   0  0  0  0  0  0  0  0  0  0  0  0
    7.6680    1.6655    0.5875 C   0  0  0  0  0  0  0  0  0  0  0  0
    5.2489    0.0847   -0.5991 C   0  0  0  0  0  0  0  0  0  0  0  0
    4.3855   -0.9887   -0.9028 C   0  0  0  0  0  0  0  0  0  0  0  0
    4.2700   -1.4359   -2.3622 C   0  0  0  0  0  0  0  0  0  0  0  0
    5.6172   -1.9198   -2.9109 C   0  0  0  0  0  0  0  0  0  0  0  0
    3.6861   -0.3298   -3.2474 C   0  0  0  0  0  0  0  0  0  0  0  0
    3.1805   -4.0533    0.0484 C   0  0  0  0  0  0  0  0  0  0  0  0
    2.3387   -5.1427   -0.1823 C   0  0  0  0  0  0  0  0  0  0  0  0
    1.0312   -4.9357   -0.6957 C   0  0  0  0  0  0  0  0  0  0  0  0
    0.2125   -6.0893   -0.8017 C   0  0  0  0  0  0  0  0  0  0  0  0
    0.6740   -7.3715   -0.4918 C   0  0  0  0  0  0  0  0  0  0  0  0
    1.9731   -7.5467   -0.0441 C   0  0  0  0  0  0  0  0  0  0  0  0
    2.7975   -6.4371    0.1155 C   0  0  0  0  0  0  0  0  0  0  0  0
    0.5828   -3.6068   -1.0337 C   0  0  0  0  0  0  0  0  0  0  0  0
   -0.6556   -3.3305   -1.7409 C   0  0  0  0  0  0  0  0  0  0  0  0
   -1.5746   -2.3774   -1.2383 C   0  0  0  0  0  0  0  0  0  0  0  0
   -1.3004   -1.7323   -0.0534 O   0  0  0  0  0  0  0  0  0  0  0  0
   -2.8409   -2.1291   -1.8051 C   0  0  0  0  0  0  0  0  0  0  0  0
   -3.7572   -1.1032   -1.2566 C   0  0  0  0  0  0  0  0  0  0  0  0
   -3.8957    0.1630   -1.9043 C   0  0  0  0  0  0  0  0  0  0  0  0
   -3.1924    0.4945   -3.2268 C   0  0  0  0  0  0  0  0  0  0  0  0
   -2.6064    1.9143   -3.2885 C   0  0  0  0  0  0  0  0  0  0  0  0
   -4.1533    0.2977   -4.4053 C   0  0  0  0  0  0  0  0  0  0  0  0
   -4.7375    1.1364   -1.3301 C   0  0  0  0  0  0  0  0  0  0  0  0
   -5.4276    0.9164   -0.1339 C   0  0  0  0  0  0  0  0  0  0  0  0
   -6.2584    1.9716    0.4632 C   0  0  0  0  0  0  0  0  0  0  0  0
   -7.5988    1.7438    0.7896 C   0  0  0  0  0  0  0  0  0  0  0  0
   -8.3811    2.7526    1.3635 C   0  0  0  0  0  0  0  0  0  0  0  0
   -7.8573    4.0299    1.6360 C   0  0  0  0  0  0  0  0  0  0  0  0
   -8.7483    5.1128    2.2686 C   0  0  0  0  0  0  0  0  0  0  0  0
   -9.9527    5.3985    1.3457 C   0  0  0  0  0  0  0  0  0  0  0  0
   -8.0244    6.4577    2.5045 C   0  0  0  0  0  0  0  0  0  0  0  0
   -9.2637    4.6252    3.6400 C   0  0  0  0  0  0  0  0  0  0  0  0
   -6.5125    4.2505    1.3062 C   0  0  0  0  0  0  0  0  0  0  0  0
   -5.7298    3.2412    0.7307 C   0  0  0  0  0  0  0  0  0  0  0  0
   -5.3020   -0.3362    0.4743 C   0  0  0  0  0  0  0  0  0  0  0  0
   -4.4921   -1.3572   -0.0642 C   0  0  0  0  0  0  0  0  0  0  0  0
   -4.4539   -2.7089    0.6542 C   0  0  0  0  0  0  0  0  0  0  0  0
   -5.8272   -3.3896    0.6221 C   0  0  0  0  0  0  0  0  0  0  0  0
   -3.9444   -2.5823    2.0942 C   0  0  0  0  0  0  0  0  0  0  0  0
   -3.2193   -2.8831   -2.9154 C   0  0  0  0  0  0  0  0  0  0  0  0
   -2.3357   -3.7800   -3.5174 C   0  0  0  0  0  0  0  0  0  0  0  0
   -1.0416   -3.9870   -2.9678 C   0  0  0  0  0  0  0  0  0  0  0  0
   -0.1740   -4.8205   -3.7194 C   0  0  0  0  0  0  0  0  0  0  0  0
   -0.5776   -5.4692   -4.8897 C   0  0  0  0  0  0  0  0  0  0  0  0
   -1.8659   -5.2923   -5.3663 C   0  0  0  0  0  0  0  0  0  0  0  0
   -2.7367   -4.4463   -4.6872 C   0  0  0  0  0  0  0  0  0  0  0  0
   -1.3744    1.0543   -0.3485 H   0  0  0  0  0  0  0  0  0  0  0  0
    2.2286   -2.3298    2.3191 H   0  0  0  0  0  0  0  0  0  0  0  0
    1.9148   -1.2709    4.4107 H   0  0  0  0  0  0  0  0  0  0  0  0
    3.4080   -0.3437    4.3011 H   0  0  0  0  0  0  0  0  0  0  0  0
    2.0572    0.0390    3.2278 H   0  0  0  0  0  0  0  0  0  0  0  0
    3.4933   -3.3115    4.1944 H   0  0  0  0  0  0  0  0  0  0  0  0
    4.9108   -2.3215    3.8134 H   0  0  0  0  0  0  0  0  0  0  0  0
    4.3871   -3.5797    2.6938 H   0  0  0  0  0  0  0  0  0  0  0  0
    4.9034    0.2375    2.7553 H   0  0  0  0  0  0  0  0  0  0  0  0
    4.8311    2.8511    2.0142 H   0  0  0  0  0  0  0  0  0  0  0  0
    6.2859    4.7216    2.5074 H   0  0  0  0  0  0  0  0  0  0  0  0
    9.0858    7.0222    2.8054 H   0  0  0  0  0  0  0  0  0  0  0  0
    7.5285    6.6522    2.0651 H   0  0  0  0  0  0  0  0  0  0  0  0
    7.9900    5.8935    3.6027 H   0  0  0  0  0  0  0  0  0  0  0  0
   10.7977    3.7871    2.1787 H   0  0  0  0  0  0  0  0  0  0  0  0
    9.8591    4.1042    3.6422 H   0  0  0  0  0  0  0  0  0  0  0  0
   10.8879    5.3684    2.9501 H   0  0  0  0  0  0  0  0  0  0  0  0
   10.2109    6.4796    0.6969 H   0  0  0  0  0  0  0  0  0  0  0  0
    8.7284    5.9599   -0.1203 H   0  0  0  0  0  0  0  0  0  0  0  0
   10.1289    4.8845   -0.0465 H   0  0  0  0  0  0  0  0  0  0  0  0
    9.5460    2.6822    0.5273 H   0  0  0  0  0  0  0  0  0  0  0  0
    8.0708    0.8070    0.0541 H   0  0  0  0  0  0  0  0  0  0  0  0
    5.7847    0.5840   -1.4051 H   0  0  0  0  0  0  0  0  0  0  0  0
    3.5914   -2.2894   -2.4473 H   0  0  0  0  0  0  0  0  0  0  0  0
    5.4963   -2.3225   -3.9225 H   0  0  0  0  0  0  0  0  0  0  0  0
    6.3569   -1.1139   -2.9638 H   0  0  0  0  0  0  0  0  0  0  0  0
    6.0319   -2.7149   -2.2812 H   0  0  0  0  0  0  0  0  0  0  0  0
    2.7211    0.0151   -2.8606 H   0  0  0  0  0  0  0  0  0  0  0  0
    3.5253   -0.6995   -4.2660 H   0  0  0  0  0  0  0  0  0  0  0  0
    4.3491    0.5393   -3.3131 H   0  0  0  0  0  0  0  0  0  0  0  0
    4.1918   -4.2180    0.4181 H   0  0  0  0  0  0  0  0  0  0  0  0
   -0.8241   -6.0025   -1.1230 H   0  0  0  0  0  0  0  0  0  0  0  0
    0.0113   -8.2263   -0.5986 H   0  0  0  0  0  0  0  0  0  0  0  0
    2.3397   -8.5402    0.1989 H   0  0  0  0  0  0  0  0  0  0  0  0
    3.8063   -6.5909    0.4947 H   0  0  0  0  0  0  0  0  0  0  0  0
   -2.3386   -0.1775   -3.3631 H   0  0  0  0  0  0  0  0  0  0  0  0
   -2.0016    2.1424   -2.4070 H   0  0  0  0  0  0  0  0  0  0  0  0
   -3.3842    2.6813   -3.3665 H   0  0  0  0  0  0  0  0  0  0  0  0
   -1.9646    2.0191   -4.1707 H   0  0  0  0  0  0  0  0  0  0  0  0
   -4.9948    0.9984   -4.3585 H   0  0  0  0  0  0  0  0  0  0  0  0
   -3.6352    0.4608   -5.3566 H   0  0  0  0  0  0  0  0  0  0  0  0
   -4.5724   -0.7122   -4.4242 H   0  0  0  0  0  0  0  0  0  0  0  0
   -4.8765    2.0925   -1.8318 H   0  0  0  0  0  0  0  0  0  0  0  0
   -8.0544    0.7761    0.5900 H   0  0  0  0  0  0  0  0  0  0  0  0
   -9.4184    2.5200    1.5947 H   0  0  0  0  0  0  0  0  0  0  0  0
  -10.5904    4.5179    1.2116 H   0  0  0  0  0  0  0  0  0  0  0  0
   -9.6202    5.7186    0.3511 H   0  0  0  0  0  0  0  0  0  0  0  0
  -10.5863    6.1929    1.7573 H   0  0  0  0  0  0  0  0  0  0  0  0
   -7.6575    6.8886    1.5656 H   0  0  0  0  0  0  0  0  0  0  0  0
   -7.1719    6.3434    3.1842 H   0  0  0  0  0  0  0  0  0  0  0  0
   -8.6988    7.1956    2.9554 H   0  0  0  0  0  0  0  0  0  0  0  0
   -9.8741    5.3935    4.1288 H   0  0  0  0  0  0  0  0  0  0  0  0
   -9.8870    3.7284    3.5537 H   0  0  0  0  0  0  0  0  0  0  0  0
   -8.4309    4.3838    4.3112 H   0  0  0  0  0  0  0  0  0  0  0  0
   -6.0312    5.2071    1.4881 H   0  0  0  0  0  0  0  0  0  0  0  0
   -4.6877    3.4575    0.5038 H   0  0  0  0  0  0  0  0  0  0  0  0
   -5.8462   -0.5195    1.4000 H   0  0  0  0  0  0  0  0  0  0  0  0
   -3.7686   -3.3922    0.1446 H   0  0  0  0  0  0  0  0  0  0  0  0
   -5.7697   -4.3907    1.0633 H   0  0  0  0  0  0  0  0  0  0  0  0
   -6.1852   -3.4975   -0.4079 H   0  0  0  0  0  0  0  0  0  0  0  0
   -6.5810   -2.8247    1.1809 H   0  0  0  0  0  0  0  0  0  0  0  0
   -2.9708   -2.0821    2.1263 H   0  0  0  0  0  0  0  0  0  0  0  0
   -3.8264   -3.5734    2.5458 H   0  0  0  0  0  0  0  0  0  0  0  0
   -4.6325   -2.0133    2.7281 H   0  0  0  0  0  0  0  0  0  0  0  0
   -4.2118   -2.7335   -3.3372 H   0  0  0  0  0  0  0  0  0  0  0  0
    0.8574   -4.9708   -3.4048 H   0  0  0  0  0  0  0  0  0  0  0  0
    0.1223   -6.1059   -5.4243 H   0  0  0  0  0  0  0  0  0  0  0  0
   -2.1876   -5.7922   -6.2754 H   0  0  0  0  0  0  0  0  0  0  0  0
   -3.7348   -4.2949   -5.0944 H   0  0  0  0  0  0  0  0  0  0  0  0
  2  1  2  0  0  0  0
  3 70  1  0  0  0  0
  3  2  1  0  0  0  0
  4  5  1  0  0  0  0
  4  2  1  0  0  0  0
  5  6  2  0  0  0  0
  6 29  1  0  0  0  0
  6  7  1  0  0  0  0
  7  8  2  0  0  0  0
  8 12  1  0  0  0  0
  8  9  1  0  0  0  0
  9 11  1  0  0  0  0
  9 10  1  0  0  0  0
 10 73  1  0  0  0  0
 10 72  1  0  0  0  0
 11 76  1  0  0  0  0
 11 75  1  0  0  0  0
 12 78  1  0  0  0  0
 13 14  1  0  0  0  0
 13 12  2  0  0  0  0
 14 15  2  0  0  0  0
 15 16  1  0  0  0  0
 15 79  1  0  0  0  0
 16 80  1  0  0  0  0
 17 18  1  0  0  0  0
 17 16  2  0  0  0  0
 18 19  1  0  0  0  0
 18 20  1  0  0  0  0
 19 81  1  0  0  0  0
 19 83  1  0  0  0  0
 20 86  1  0  0  0  0
 20 85  1  0  0  0  0
 21 87  1  0  0  0  0
 21 18  1  0  0  0  0
 22 17  1  0  0  0  0
 23 22  2  0  0  0  0
 23 14  1  0  0  0  0
 24 13  1  0  0  0  0
 25 24  2  0  0  0  0
 25  7  1  0  0  0  0
 26 25  1  0  0  0  0
 27 26  1  0  0  0  0
 27 96  1  0  0  0  0
 28 97  1  0  0  0  0
 28 26  1  0  0  0  0
 29100  1  0  0  0  0
 30 29  2  0  0  0  0
 30 35  1  0  0  0  0
 31 30  1  0  0  0  0
 32 31  1  0  0  0  0
 32 33  2  0  0  0  0
 33 34  1  0  0  0  0
 34 35  2  0  0  0  0
 34103  1  0  0  0  0
 35104  1  0  0  0  0
 36 31  2  0  0  0  0
 36  5  1  0  0  0  0
 37 38  2  0  0  0  0
 37 36  1  0  0  0  0
 38 39  1  0  0  0  0
 39  2  1  0  0  0  0
 40 41  1  0  0  0  0
 40 38  1  0  0  0  0
 41 59  2  0  0  0  0
 42 46  2  0  0  0  0
 42 41  1  0  0  0  0
 43 42  1  0  0  0  0
 44 43  1  0  0  0  0
 44106  1  0  0  0  0
 45109  1  0  0  0  0
 45 43  1  0  0  0  0
 46 47  1  0  0  0  0
 47 48  1  0  0  0  0
 47 58  2  0  0  0  0
 48 57  2  0  0  0  0
 48 49  1  0  0  0  0
 49 50  2  0  0  0  0
 50114  1  0  0  0  0
 50 51  1  0  0  0  0
 51 52  1  0  0  0  0
 52 54  1  0  0  0  0
 52 55  1  0  0  0  0
 53117  1  0  0  0  0
 53 52  1  0  0  0  0
 54120  1  0  0  0  0
 54119  1  0  0  0  0
 55121  1  0  0  0  0
 55123  1  0  0  0  0
 56124  1  0  0  0  0
 56 51  2  0  0  0  0
 57 56  1  0  0  0  0
 58126  1  0  0  0  0
 59 58  1  0  0  0  0
 59 60  1  0  0  0  0
 60 62  1  0  0  0  0
 61 60  1  0  0  0  0
 61128  1  0  0  0  0
 61130  1  0  0  0  0
 62131  1  0  0  0  0
 62132  1  0  0  0  0
 62133  1  0  0  0  0
 63 40  2  0  0  0  0
 64 65  1  0  0  0  0
 64 63  1  0  0  0  0
 65 37  1  0  0  0  0
 66135  1  0  0  0  0
 66 65  2  0  0  0  0
 67 66  1  0  0  0  0
 68 67  2  0  0  0  0
 68 69  1  0  0  0  0
 69 64  2  0  0  0  0
 71  9  1  0  0  0  0
 74 10  1  0  0  0  0
 77 11  1  0  0  0  0
 82 19  1  0  0  0  0
 84 20  1  0  0  0  0
 88 21  1  0  0  0  0
 89 21  1  0  0  0  0
 90 22  1  0  0  0  0
 91 23  1  0  0  0  0
 92 24  1  0  0  0  0
 93 26  1  0  0  0  0
 94 27  1  0  0  0  0
 95 27  1  0  0  0  0
 98 28  1  0  0  0  0
 99 28  1  0  0  0  0
101 32  1  0  0  0  0
102 33  1  0  0  0  0
105 43  1  0  0  0  0
107 44  1  0  0  0  0
108 44  1  0  0  0  0
110 45  1  0  0  0  0
111 45  1  0  0  0  0
112 46  1  0  0  0  0
113 49  1  0  0  0  0
115 53  1  0  0  0  0
116 53  1  0  0  0  0
118 54  1  0  0  0  0
122 55  1  0  0  0  0
125 57  1  0  0  0  0
127 60  1  0  0  0  0
129 61  1  0  0  0  0
134 63  1  0  0  0  0
136 67  1  0  0  0  0
137 68  1  0  0  0  0
138 69  1  0  0  0  0
M  END
$$$$
