O=P1(O)OC2=C(C3=C(C=CC4=CC=CC(C=C5)=C46)C6=C5C=C3)C=C7C(C=CC=C7)=C2C8=C(O1)C(C9=CC=C(C=C%10)C%11=C9C=CC%12=CC=CC%10=C%11%12)=CC%13=C8C=CC=C%13
 OpenBabel09032010373D

 86 98  0  0  0  0  0  0  0  0999 V2000
    0.1722    2.1223   -1.8982 O   0  0  0  0  0  0  0  0  0  0  0  0
   -0.2842    1.0568   -0.9509 P   0  0  0  0  0  0  0  0  0  0  0  0
   -0.9863   -0.1709   -1.7113 O   0  0  0  0  0  0  0  0  0  0  0  0
    0.8610    0.3347   -0.0776 O   0  0  0  0  0  0  0  0  0  0  0  0
    1.3432    1.0172    1.0153 C   0  0  0  0  0  0  0  0  0  0  0  0
    2.6673    1.4797    0.9435 C   0  0  0  0  0  0  0  0  0  0  0  0
    3.5212    1.2391   -0.2346 C   0  0  0  0  0  0  0  0  0  0  0  0
    4.3361    0.0781   -0.3592 C   0  0  0  0  0  0  0  0  0  0  0  0
    4.3835   -0.9409    0.6167 C   0  0  0  0  0  0  0  0  0  0  0  0
    5.1931   -2.0689    0.4661 C   0  0  0  0  0  0  0  0  0  0  0  0
    5.9911   -2.2243   -0.6693 C   0  0  0  0  0  0  0  0  0  0  0  0
    6.8069   -3.3532   -0.8322 C   0  0  0  0  0  0  0  0  0  0  0  0
    7.5984   -3.4979   -1.9696 C   0  0  0  0  0  0  0  0  0  0  0  0
    7.5851   -2.5156   -2.9580 C   0  0  0  0  0  0  0  0  0  0  0  0
    6.7766   -1.3771   -2.8226 C   0  0  0  0  0  0  0  0  0  0  0  0
    6.7510   -0.3867   -3.8108 C   0  0  0  0  0  0  0  0  0  0  0  0
    5.9394    0.7396   -3.6676 C   0  0  0  0  0  0  0  0  0  0  0  0
    5.9704   -1.2255   -1.6686 C   0  0  0  0  0  0  0  0  0  0  0  0
    5.1448   -0.0790   -1.5154 C   0  0  0  0  0  0  0  0  0  0  0  0
    5.1360    0.9059   -2.5318 C   0  0  0  0  0  0  0  0  0  0  0  0
    4.3226    2.0339   -2.3925 C   0  0  0  0  0  0  0  0  0  0  0  0
    3.5285    2.1985   -1.2599 C   0  0  0  0  0  0  0  0  0  0  0  0
    3.1806    2.1748    2.0393 C   0  0  0  0  0  0  0  0  0  0  0  0
    2.3998    2.4268    3.1705 C   0  0  0  0  0  0  0  0  0  0  0  0
    1.0664    1.9403    3.2405 C   0  0  0  0  0  0  0  0  0  0  0  0
    0.3206    2.3206    4.3854 C   0  0  0  0  0  0  0  0  0  0  0  0
    0.8709    3.0751    5.4251 C   0  0  0  0  0  0  0  0  0  0  0  0
    2.1891    3.4946    5.3498 C   0  0  0  0  0  0  0  0  0  0  0  0
    2.9458    3.1774    4.2256 C   0  0  0  0  0  0  0  0  0  0  0  0
    0.5223    1.1531    2.1608 C   0  0  0  0  0  0  0  0  0  0  0  0
   -0.7732    0.5039    2.2049 C   0  0  0  0  0  0  0  0  0  0  0  0
   -1.7214    0.7302    1.1773 C   0  0  0  0  0  0  0  0  0  0  0  0
   -1.3981    1.5373    0.1092 O   0  0  0  0  0  0  0  0  0  0  0  0
   -3.0440    0.2517    1.2159 C   0  0  0  0  0  0  0  0  0  0  0  0
   -4.0179    0.5753    0.1556 C   0  0  0  0  0  0  0  0  0  0  0  0
   -4.6325    1.8388    0.1878 C   0  0  0  0  0  0  0  0  0  0  0  0
   -5.5376    2.2245   -0.7971 C   0  0  0  0  0  0  0  0  0  0  0  0
   -5.8521    1.3586   -1.8470 C   0  0  0  0  0  0  0  0  0  0  0  0
   -6.7518    1.7494   -2.8467 C   0  0  0  0  0  0  0  0  0  0  0  0
   -7.0608    0.8925   -3.9030 C   0  0  0  0  0  0  0  0  0  0  0  0
   -5.2515    0.0774   -1.9019 C   0  0  0  0  0  0  0  0  0  0  0  0
   -4.3345   -0.3284   -0.8975 C   0  0  0  0  0  0  0  0  0  0  0  0
   -3.7685   -1.6171   -1.0097 C   0  0  0  0  0  0  0  0  0  0  0  0
   -4.0865   -2.4738   -2.0660 C   0  0  0  0  0  0  0  0  0  0  0  0
   -4.9842   -2.0750   -3.0579 C   0  0  0  0  0  0  0  0  0  0  0  0
   -5.3072   -2.9227   -4.1274 C   0  0  0  0  0  0  0  0  0  0  0  0
   -6.1946   -2.5059   -5.1165 C   0  0  0  0  0  0  0  0  0  0  0  0
   -6.7768   -1.2421   -5.0452 C   0  0  0  0  0  0  0  0  0  0  0  0
   -6.4781   -0.3769   -3.9838 C   0  0  0  0  0  0  0  0  0  0  0  0
   -5.5717   -0.7917   -2.9792 C   0  0  0  0  0  0  0  0  0  0  0  0
   -3.4312   -0.5304    2.3040 C   0  0  0  0  0  0  0  0  0  0  0  0
   -2.5250   -0.8682    3.3118 C   0  0  0  0  0  0  0  0  0  0  0  0
   -1.1906   -0.3798    3.2669 C   0  0  0  0  0  0  0  0  0  0  0  0
   -0.3180   -0.8537    4.2800 C   0  0  0  0  0  0  0  0  0  0  0  0
   -0.7467   -1.6969    5.3091 C   0  0  0  0  0  0  0  0  0  0  0  0
   -2.0665   -2.1154    5.3533 C   0  0  0  0  0  0  0  0  0  0  0  0
   -2.9475   -1.7086    4.3558 C   0  0  0  0  0  0  0  0  0  0  0  0
   -1.5959    0.1382   -2.4072 H   0  0  0  0  0  0  0  0  0  0  0  0
    3.7765   -0.8727    1.5172 H   0  0  0  0  0  0  0  0  0  0  0  0
    5.1888   -2.8254    1.2475 H   0  0  0  0  0  0  0  0  0  0  0  0
    6.8301   -4.1305   -0.0717 H   0  0  0  0  0  0  0  0  0  0  0  0
    8.2253   -4.3777   -2.0861 H   0  0  0  0  0  0  0  0  0  0  0  0
    8.2121   -2.6475   -3.8375 H   0  0  0  0  0  0  0  0  0  0  0  0
    7.3624   -0.4835   -4.7054 H   0  0  0  0  0  0  0  0  0  0  0  0
    5.9404    1.4891   -4.4562 H   0  0  0  0  0  0  0  0  0  0  0  0
    4.2915    2.7967   -3.1670 H   0  0  0  0  0  0  0  0  0  0  0  0
    2.8969    3.0828   -1.1856 H   0  0  0  0  0  0  0  0  0  0  0  0
    4.2064    2.5400    1.9934 H   0  0  0  0  0  0  0  0  0  0  0  0
   -0.7272    2.0407    4.4798 H   0  0  0  0  0  0  0  0  0  0  0  0
    0.2613    3.3361    6.2862 H   0  0  0  0  0  0  0  0  0  0  0  0
    2.6243    4.0822    6.1536 H   0  0  0  0  0  0  0  0  0  0  0  0
    3.9724    3.5362    4.1728 H   0  0  0  0  0  0  0  0  0  0  0  0
   -4.3947    2.5385    0.9876 H   0  0  0  0  0  0  0  0  0  0  0  0
   -5.9873    3.2133   -0.7378 H   0  0  0  0  0  0  0  0  0  0  0  0
   -7.2212    2.7306   -2.8154 H   0  0  0  0  0  0  0  0  0  0  0  0
   -7.7621    1.2282   -4.6641 H   0  0  0  0  0  0  0  0  0  0  0  0
   -3.0495   -1.9733   -0.2736 H   0  0  0  0  0  0  0  0  0  0  0  0
   -3.6159   -3.4539   -2.1048 H   0  0  0  0  0  0  0  0  0  0  0  0
   -4.8723   -3.9175   -4.2003 H   0  0  0  0  0  0  0  0  0  0  0  0
   -6.4359   -3.1686   -5.9433 H   0  0  0  0  0  0  0  0  0  0  0  0
   -7.4685   -0.9370   -5.8271 H   0  0  0  0  0  0  0  0  0  0  0  0
   -4.4551   -0.9012    2.3456 H   0  0  0  0  0  0  0  0  0  0  0  0
    0.7354   -0.5784    4.2749 H   0  0  0  0  0  0  0  0  0  0  0  0
   -0.0413   -2.0267    6.0675 H   0  0  0  0  0  0  0  0  0  0  0  0
   -2.4074   -2.7711    6.1500 H   0  0  0  0  0  0  0  0  0  0  0  0
   -3.9744   -2.0688    4.3921 H   0  0  0  0  0  0  0  0  0  0  0  0
  1  2  2  0  0  0  0
  2  4  1  0  0  0  0
  2 33  1  0  0  0  0
  3  2  1  0  0  0  0
  4  5  1  0  0  0  0
  5 30  1  0  0  0  0
  6  5  2  0  0  0  0
  6 23  1  0  0  0  0
  7  6  1  0  0  0  0
  8  7  1  0  0  0  0
  8  9  1  0  0  0  0
  9 59  1  0  0  0  0
 10  9  2  0  0  0  0
 10 60  1  0  0  0  0
 11 10  1  0  0  0  0
 12 11  1  0  0  0  0
 12 61  1  0  0  0  0
 13 12  2  0  0  0  0
 14 15  2  0  0  0  0
 14 13  1  0  0  0  0
 15 18  1  0  0  0  0
 16 17  2  0  0  0  0
 16 15  1  0  0  0  0
 17 20  1  0  0  0  0
 18 19  1  0  0  0  0
 18 11  2  0  0  0  0
 19  8  2  0  0  0  0
 20 21  2  0  0  0  0
 20 19  1  0  0  0  0
 21 22  1  0  0  0  0
 22 67  1  0  0  0  0
 22  7  2  0  0  0  0
 23 24  2  0  0  0  0
 24 25  1  0  0  0  0
 24 29  1  0  0  0  0
 25 26  1  0  0  0  0
 26 69  1  0  0  0  0
 26 27  2  0  0  0  0
 27 70  1  0  0  0  0
 28 27  1  0  0  0  0
 28 71  1  0  0  0  0
 29 28  2  0  0  0  0
 30 31  1  0  0  0  0
 30 25  2  0  0  0  0
 31 53  2  0  0  0  0
 32 34  2  0  0  0  0
 32 31  1  0  0  0  0
 33 32  1  0  0  0  0
 34 51  1  0  0  0  0
 35 36  1  0  0  0  0
 35 34  1  0  0  0  0
 36 73  1  0  0  0  0
 37 74  1  0  0  0  0
 37 36  2  0  0  0  0
 38 37  1  0  0  0  0
 39 75  1  0  0  0  0
 39 38  2  0  0  0  0
 40 39  1  0  0  0  0
 41 38  1  0  0  0  0
 41 42  1  0  0  0  0
 42 35  2  0  0  0  0
 43 42  1  0  0  0  0
 43 77  1  0  0  0  0
 44 43  2  0  0  0  0
 45 50  1  0  0  0  0
 45 44  1  0  0  0  0
 46 45  2  0  0  0  0
 47 48  2  0  0  0  0
 47 46  1  0  0  0  0
 48 49  1  0  0  0  0
 49 40  2  0  0  0  0
 49 50  1  0  0  0  0
 50 41  2  0  0  0  0
 51 82  1  0  0  0  0
 51 52  2  0  0  0  0
 52 57  1  0  0  0  0
 53 52  1  0  0  0  0
 53 54  1  0  0  0  0
 54 55  2  0  0  0  0
 55 56  1  0  0  0  0
 55 84  1  0  0  0  0
 56 85  1  0  0  0  0
 57 86  1  0  0  0  0
 57 56  2  0  0  0  0
 58  3  1  0  0  0  0
 62 13  1  0  0  0  0
 63 14  1  0  0  0  0
 64 16  1  0  0  0  0
 65 17  1  0  0  0  0
 66 21  1  0  0  0  0
 68 23  1  0  0  0  0
 72 29  1  0  0  0  0
 76 40  1  0  0  0  0
 78 44  1  0  0  0  0
 79 46  1  0  0  0  0
 80 47  1  0  0  0  0
 81 48  1  0  0  0  0
 83 54  1  0  0  0  0
M  END
$$$$
