O=P1(O)OC2=C(C3=C(C=CC4=CC=CC(C=C5)=C46)C6=C5C=C3)C=C7C(C=CC=C7)=C2C8=C(O1)C(C9=CC=C(C=C%10)C%11=C9C=CC%12=CC=CC%10=C%11%12)=CC%13=C8C=CC=C%13
 OpenBabel09032010373D

 86 98  0  0  0  0  0  0  0  0999 V2000
    0.7860    0.5399   -1.7778 O   0  0  0  0  0  0  0  0  0  0  0  0
   -0.0024   -0.0191   -0.6373 P   0  0  0  0  0  0  0  0  0  0  0  0
   -0.9497   -1.2320   -1.0975 O   0  0  0  0  0  0  0  0  0  0  0  0
    0.8400   -0.6627    0.5768 O   0  0  0  0  0  0  0  0  0  0  0  0
    1.3968    0.2007    1.4919 C   0  0  0  0  0  0  0  0  0  0  0  0
    2.7987    0.2854    1.5176 C   0  0  0  0  0  0  0  0  0  0  0  0
    3.6596   -0.5437    0.6511 C   0  0  0  0  0  0  0  0  0  0  0  0
    4.2953   -0.0396   -0.5180 C   0  0  0  0  0  0  0  0  0  0  0  0
    4.1108    1.2765   -0.9923 C   0  0  0  0  0  0  0  0  0  0  0  0
    4.7560    1.7431   -2.1400 C   0  0  0  0  0  0  0  0  0  0  0  0
    5.6157    0.9115   -2.8614 C   0  0  0  0  0  0  0  0  0  0  0  0
    6.2721    1.3704   -4.0128 C   0  0  0  0  0  0  0  0  0  0  0  0
    7.1273    0.5313   -4.7244 C   0  0  0  0  0  0  0  0  0  0  0  0
    7.3357   -0.7781   -4.2952 C   0  0  0  0  0  0  0  0  0  0  0  0
    6.6879   -1.2653   -3.1503 C   0  0  0  0  0  0  0  0  0  0  0  0
    6.8834   -2.5806   -2.7152 C   0  0  0  0  0  0  0  0  0  0  0  0
    6.2311   -3.0566   -1.5774 C   0  0  0  0  0  0  0  0  0  0  0  0
    5.8204   -0.4153   -2.4217 C   0  0  0  0  0  0  0  0  0  0  0  0
    5.1587   -0.8914   -1.2577 C   0  0  0  0  0  0  0  0  0  0  0  0
    5.3723   -2.2281   -0.8432 C   0  0  0  0  0  0  0  0  0  0  0  0
    4.7234   -2.7090    0.2964 C   0  0  0  0  0  0  0  0  0  0  0  0
    3.8820   -1.8785    1.0325 C   0  0  0  0  0  0  0  0  0  0  0  0
    3.3856    1.1583    2.4363 C   0  0  0  0  0  0  0  0  0  0  0  0
    2.6104    1.9497    3.2877 C   0  0  0  0  0  0  0  0  0  0  0  0
    1.1943    1.8419    3.2677 C   0  0  0  0  0  0  0  0  0  0  0  0
    0.4856    2.7420    4.1040 C   0  0  0  0  0  0  0  0  0  0  0  0
    1.1302    3.6461    4.9526 C   0  0  0  0  0  0  0  0  0  0  0  0
    2.5144    3.6957    4.9836 C   0  0  0  0  0  0  0  0  0  0  0  0
    3.2488    2.8563    4.1511 C   0  0  0  0  0  0  0  0  0  0  0  0
    0.5504    0.8928    2.3932 C   0  0  0  0  0  0  0  0  0  0  0  0
   -0.8712    0.6118    2.4173 C   0  0  0  0  0  0  0  0  0  0  0  0
   -1.6377    0.7062    1.2311 C   0  0  0  0  0  0  0  0  0  0  0  0
   -1.0228    1.0257    0.0419 O   0  0  0  0  0  0  0  0  0  0  0  0
   -3.0389    0.5850    1.1942 C   0  0  0  0  0  0  0  0  0  0  0  0
   -3.8012    0.7676   -0.0562 C   0  0  0  0  0  0  0  0  0  0  0  0
   -4.0461    2.0807   -0.4933 C   0  0  0  0  0  0  0  0  0  0  0  0
   -4.7325    2.3290   -1.6787 C   0  0  0  0  0  0  0  0  0  0  0  0
   -5.1909    1.2699   -2.4656 C   0  0  0  0  0  0  0  0  0  0  0  0
   -5.8700    1.5168   -3.6654 C   0  0  0  0  0  0  0  0  0  0  0  0
   -6.3199    0.4627   -4.4604 C   0  0  0  0  0  0  0  0  0  0  0  0
   -4.9617   -0.0634   -2.0477 C   0  0  0  0  0  0  0  0  0  0  0  0
   -4.2709   -0.3265   -0.8361 C   0  0  0  0  0  0  0  0  0  0  0  0
   -4.0720   -1.6772   -0.4759 C   0  0  0  0  0  0  0  0  0  0  0  0
   -4.5303   -2.7290   -1.2726 C   0  0  0  0  0  0  0  0  0  0  0  0
   -5.2059   -2.4728   -2.4670 C   0  0  0  0  0  0  0  0  0  0  0  0
   -5.6656   -3.5194   -3.2794 C   0  0  0  0  0  0  0  0  0  0  0  0
   -6.3266   -3.2483   -4.4748 C   0  0  0  0  0  0  0  0  0  0  0  0
   -6.5445   -1.9298   -4.8691 C   0  0  0  0  0  0  0  0  0  0  0  0
   -6.1026   -0.8641   -4.0734 C   0  0  0  0  0  0  0  0  0  0  0  0
   -5.4239   -1.1328   -2.8608 C   0  0  0  0  0  0  0  0  0  0  0  0
   -3.7082    0.3059    2.3857 C   0  0  0  0  0  0  0  0  0  0  0  0
   -3.0101    0.1126    3.5802 C   0  0  0  0  0  0  0  0  0  0  0  0
   -1.5946    0.2415    3.6101 C   0  0  0  0  0  0  0  0  0  0  0  0
   -0.9659   -0.0627    4.8449 C   0  0  0  0  0  0  0  0  0  0  0  0
   -1.6864   -0.4063    5.9922 C   0  0  0  0  0  0  0  0  0  0  0  0
   -3.0690   -0.4778    5.9428 C   0  0  0  0  0  0  0  0  0  0  0  0
   -3.7251   -0.2262    4.7416 C   0  0  0  0  0  0  0  0  0  0  0  0
   -1.3810   -1.0409   -1.9515 H   0  0  0  0  0  0  0  0  0  0  0  0
    3.4381    1.9610   -0.4798 H   0  0  0  0  0  0  0  0  0  0  0  0
    4.5697    2.7638   -2.4660 H   0  0  0  0  0  0  0  0  0  0  0  0
    6.1194    2.3884   -4.3640 H   0  0  0  0  0  0  0  0  0  0  0  0
    7.6304    0.8978   -5.6150 H   0  0  0  0  0  0  0  0  0  0  0  0
    8.0088   -1.4169   -4.8639 H   0  0  0  0  0  0  0  0  0  0  0  0
    7.5447   -3.2501   -3.2608 H   0  0  0  0  0  0  0  0  0  0  0  0
    6.4026   -4.0855   -1.2686 H   0  0  0  0  0  0  0  0  0  0  0  0
    4.8682   -3.7344    0.6280 H   0  0  0  0  0  0  0  0  0  0  0  0
    3.3965   -2.2775    1.9216 H   0  0  0  0  0  0  0  0  0  0  0  0
    4.4729    1.2308    2.4676 H   0  0  0  0  0  0  0  0  0  0  0  0
   -0.6029    2.7618    4.0966 H   0  0  0  0  0  0  0  0  0  0  0  0
    0.5439    4.3112    5.5812 H   0  0  0  0  0  0  0  0  0  0  0  0
    3.0235    4.3959    5.6404 H   0  0  0  0  0  0  0  0  0  0  0  0
    4.3352    2.9256    4.1715 H   0  0  0  0  0  0  0  0  0  0  0  0
   -3.6872    2.9249    0.0937 H   0  0  0  0  0  0  0  0  0  0  0  0
   -4.8974    3.3602   -1.9832 H   0  0  0  0  0  0  0  0  0  0  0  0
   -6.0537    2.5367   -3.9971 H   0  0  0  0  0  0  0  0  0  0  0  0
   -6.8421    0.6895   -5.3876 H   0  0  0  0  0  0  0  0  0  0  0  0
   -3.5364   -1.9350    0.4364 H   0  0  0  0  0  0  0  0  0  0  0  0
   -4.3441   -3.7507   -0.9484 H   0  0  0  0  0  0  0  0  0  0  0  0
   -5.5152   -4.5572   -2.9886 H   0  0  0  0  0  0  0  0  0  0  0  0
   -6.6760   -4.0662   -5.0993 H   0  0  0  0  0  0  0  0  0  0  0  0
   -7.0643   -1.7401   -5.8053 H   0  0  0  0  0  0  0  0  0  0  0  0
   -4.7940    0.2145    2.3686 H   0  0  0  0  0  0  0  0  0  0  0  0
    0.1194   -0.0494    4.9301 H   0  0  0  0  0  0  0  0  0  0  0  0
   -1.1592   -0.6221    6.9179 H   0  0  0  0  0  0  0  0  0  0  0  0
   -3.6360   -0.7453    6.8303 H   0  0  0  0  0  0  0  0  0  0  0  0
   -4.8103   -0.3118    4.7155 H   0  0  0  0  0  0  0  0  0  0  0  0
  1  2  2  0  0  0  0
  2 33  1  0  0  0  0
  2  4  1  0  0  0  0
  3  2  1  0  0  0  0
  4  5  1  0  0  0  0
  5  6  2  0  0  0  0
  5 30  1  0  0  0  0
  6 23  1  0  0  0  0
  7 22  1  0  0  0  0
  7  6  1  0  0  0  0
  8  7  2  0  0  0  0
  9  8  1  0  0  0  0
  9 59  1  0  0  0  0
 10  9  2  0  0  0  0
 11 18  1  0  0  0  0
 11 10  1  0  0  0  0
 12 11  2  0  0  0  0
 13 14  2  0  0  0  0
 13 12  1  0  0  0  0
 14 15  1  0  0  0  0
 15 16  2  0  0  0  0
 15 18  1  0  0  0  0
 16 17  1  0  0  0  0
 17 65  1  0  0  0  0
 17 20  2  0  0  0  0
 18 19  2  0  0  0  0
 19 20  1  0  0  0  0
 19  8  1  0  0  0  0
 20 21  1  0  0  0  0
 21 66  1  0  0  0  0
 21 22  2  0  0  0  0
 22 67  1  0  0  0  0
 23 68  1  0  0  0  0
 23 24  2  0  0  0  0
 24 29  1  0  0  0  0
 25 24  1  0  0  0  0
 25 26  1  0  0  0  0
 26 27  2  0  0  0  0
 27 28  1  0  0  0  0
 27 70  1  0  0  0  0
 28 71  1  0  0  0  0
 29 72  1  0  0  0  0
 29 28  2  0  0  0  0
 30 31  1  0  0  0  0
 30 25  2  0  0  0  0
 31 53  2  0  0  0  0
 32 31  1  0  0  0  0
 33 32  1  0  0  0  0
 34 32  2  0  0  0  0
 34 51  1  0  0  0  0
 35 34  1  0  0  0  0
 36 35  1  0  0  0  0
 36 73  1  0  0  0  0
 37 36  2  0  0  0  0
 38 41  1  0  0  0  0
 38 37  1  0  0  0  0
 39 38  2  0  0  0  0
 40 49  2  0  0  0  0
 40 39  1  0  0  0  0
 41 42  1  0  0  0  0
 42 43  1  0  0  0  0
 42 35  2  0  0  0  0
 43 77  1  0  0  0  0
 44 78  1  0  0  0  0
 44 43  2  0  0  0  0
 45 44  1  0  0  0  0
 46 79  1  0  0  0  0
 46 45  2  0  0  0  0
 47 46  1  0  0  0  0
 48 47  2  0  0  0  0
 48 49  1  0  0  0  0
 49 50  1  0  0  0  0
 50 45  1  0  0  0  0
 50 41  2  0  0  0  0
 51 52  2  0  0  0  0
 52 53  1  0  0  0  0
 52 57  1  0  0  0  0
 53 54  1  0  0  0  0
 54 83  1  0  0  0  0
 54 55  2  0  0  0  0
 55 84  1  0  0  0  0
 56 55  1  0  0  0  0
 56 85  1  0  0  0  0
 57 56  2  0  0  0  0
 58  3  1  0  0  0  0
 60 10  1  0  0  0  0
 61 12  1  0  0  0  0
 62 13  1  0  0  0  0
 63 14  1  0  0  0  0
 64 16  1  0  0  0  0
 69 26  1  0  0  0  0
 74 37  1  0  0  0  0
 75 39  1  0  0  0  0
 76 40  1  0  0  0  0
 80 47  1  0  0  0  0
 81 48  1  0  0  0  0
 82 51  1  0  0  0  0
 86 57  1  0  0  0  0
M  END
$$$$
