O=P1(O)OC2=C(Br)C=C3C(CCCC3)=C2C4=C(O1)C(Br)=CC5=C4CCCC5
 OpenBabel09032010373D

 46 50  0  0  0  0  0  0  0  0999 V2000
   -0.6019    4.9652   -0.8229 O   0  0  0  0  0  0  0  0  0  0  0  0
    0.3396    3.8806   -0.4028 P   0  0  0  0  0  0  0  0  0  0  0  0
    1.7759    4.4951   -0.0203 O   0  0  0  0  0  0  0  0  0  0  0  0
    0.6779    2.7946   -1.5439 O   0  0  0  0  0  0  0  0  0  0  0  0
    1.3485    1.6473   -1.1879 C   0  0  0  0  0  0  0  0  0  0  0  0
    2.6308    1.4566   -1.7227 C   0  0  0  0  0  0  0  0  0  0  0  0
    3.4189    2.7292   -2.8907 Br  0  0  0  0  0  0  0  0  0  0  0  0
    3.3596    0.3199   -1.4019 C   0  0  0  0  0  0  0  0  0  0  0  0
    2.8212   -0.6081   -0.5139 C   0  0  0  0  0  0  0  0  0  0  0  0
    1.5178   -0.4256    0.0160 C   0  0  0  0  0  0  0  0  0  0  0  0
    1.1058   -1.4355    1.0762 C   0  0  0  0  0  0  0  0  0  0  0  0
    2.2437   -1.6521    2.0763 C   0  0  0  0  0  0  0  0  0  0  0  0
    3.5780   -2.0215    1.4174 C   0  0  0  0  0  0  0  0  0  0  0  0
    3.6056   -1.8273   -0.0992 C   0  0  0  0  0  0  0  0  0  0  0  0
    0.7104    0.6903   -0.3583 C   0  0  0  0  0  0  0  0  0  0  0  0
   -0.6535    0.8794    0.0780 C   0  0  0  0  0  0  0  0  0  0  0  0
   -1.0177    2.0670    0.7541 C   0  0  0  0  0  0  0  0  0  0  0  0
   -0.0780    3.0565    0.9169 O   0  0  0  0  0  0  0  0  0  0  0  0
   -2.2877    2.2693    1.2999 C   0  0  0  0  0  0  0  0  0  0  0  0
   -2.7200    3.8473    2.2590 Br  0  0  0  0  0  0  0  0  0  0  0  0
   -3.2708    1.3045    1.1369 C   0  0  0  0  0  0  0  0  0  0  0  0
   -3.0030    0.1410    0.4058 C   0  0  0  0  0  0  0  0  0  0  0  0
   -1.7115   -0.0664   -0.1438 C   0  0  0  0  0  0  0  0  0  0  0  0
   -1.4835   -1.2799   -1.0342 C   0  0  0  0  0  0  0  0  0  0  0  0
   -2.7674   -1.8730   -1.6110 C   0  0  0  0  0  0  0  0  0  0  0  0
   -3.7578   -2.1258   -0.4867 C   0  0  0  0  0  0  0  0  0  0  0  0
   -4.1570   -0.8067    0.1621 C   0  0  0  0  0  0  0  0  0  0  0  0
    1.8995    5.3481   -0.4754 H   0  0  0  0  0  0  0  0  0  0  0  0
    4.3544    0.1702   -1.8140 H   0  0  0  0  0  0  0  0  0  0  0  0
    0.2245   -1.1060    1.6341 H   0  0  0  0  0  0  0  0  0  0  0  0
    0.8629   -2.3878    0.5920 H   0  0  0  0  0  0  0  0  0  0  0  0
    1.9616   -2.4264    2.7993 H   0  0  0  0  0  0  0  0  0  0  0  0
    2.3859   -0.7305    2.6567 H   0  0  0  0  0  0  0  0  0  0  0  0
    4.3673   -1.4112    1.8757 H   0  0  0  0  0  0  0  0  0  0  0  0
    3.8337   -3.0627    1.6482 H   0  0  0  0  0  0  0  0  0  0  0  0
    4.6471   -1.7628   -0.4355 H   0  0  0  0  0  0  0  0  0  0  0  0
    3.1677   -2.7016   -0.5973 H   0  0  0  0  0  0  0  0  0  0  0  0
   -4.2652    1.4676    1.5479 H   0  0  0  0  0  0  0  0  0  0  0  0
   -0.9939   -2.0599   -0.4470 H   0  0  0  0  0  0  0  0  0  0  0  0
   -0.8295   -1.0172   -1.8733 H   0  0  0  0  0  0  0  0  0  0  0  0
   -2.5383   -2.8112   -2.1287 H   0  0  0  0  0  0  0  0  0  0  0  0
   -3.2034   -1.1911   -2.3517 H   0  0  0  0  0  0  0  0  0  0  0  0
   -4.6494   -2.6352   -0.8690 H   0  0  0  0  0  0  0  0  0  0  0  0
   -3.3062   -2.7892    0.2618 H   0  0  0  0  0  0  0  0  0  0  0  0
   -4.6669   -1.0188    1.1096 H   0  0  0  0  0  0  0  0  0  0  0  0
   -4.8758   -0.2960   -0.4918 H   0  0  0  0  0  0  0  0  0  0  0  0
  1  2  2  0  0  0  0
  2  3  1  0  0  0  0
  2 18  1  0  0  0  0
  4  5  1  0  0  0  0
  4  2  1  0  0  0  0
  5 15  2  0  0  0  0
  6  8  2  0  0  0  0
  6  5  1  0  0  0  0
  7  6  1  0  0  0  0
  8  9  1  0  0  0  0
  9 14  1  0  0  0  0
  9 10  2  0  0  0  0
 10 11  1  0  0  0  0
 11 30  1  0  0  0  0
 11 12  1  0  0  0  0
 12 33  1  0  0  0  0
 12 32  1  0  0  0  0
 13 35  1  0  0  0  0
 13 34  1  0  0  0  0
 13 12  1  0  0  0  0
 14 13  1  0  0  0  0
 15 10  1  0  0  0  0
 15 16  1  0  0  0  0
 16 17  1  0  0  0  0
 17 18  1  0  0  0  0
 17 19  2  0  0  0  0
 19 20  1  0  0  0  0
 21 19  1  0  0  0  0
 21 38  1  0  0  0  0
 22 21  2  0  0  0  0
 23 16  2  0  0  0  0
 23 22  1  0  0  0  0
 24 39  1  0  0  0  0
 24 23  1  0  0  0  0
 25 24  1  0  0  0  0
 25 26  1  0  0  0  0
 26 27  1  0  0  0  0
 26 44  1  0  0  0  0
 27 22  1  0  0  0  0
 27 45  1  0  0  0  0
 28  3  1  0  0  0  0
 29  8  1  0  0  0  0
 31 11  1  0  0  0  0
 36 14  1  0  0  0  0
 37 14  1  0  0  0  0
 40 24  1  0  0  0  0
 41 25  1  0  0  0  0
 42 25  1  0  0  0  0
 43 26  1  0  0  0  0
 46 27  1  0  0  0  0
M  END
$$$$
