O=P1(O)OC2=C(C3=CC(C4=CC(C(F)(F)F)=CC(C(F)(F)F)=C4)=CC(C5=CC(C(F)(F)F)=CC(C(F)(F)F)=C5)=C3)C=C6C(C=CC=C6)=C2C7=C(O1)C(C8=CC(C9=CC(C(F)(F)F)=CC(C(F)(F)F)=C9)=CC(C%10=CC(C(F)(F)F)=CC(C(F)(F)F)=C%10)=C8)=CC%11=C7C=CC=C%11
 OpenBabel09032010373D

122131  0  0  0  0  0  0  0  0999 V2000
    0.2544   -1.4700    0.0241 O   0  0  0  0  0  0  0  0  0  0  0  0
   -0.0898   -0.0112   -0.0836 P   0  0  0  0  0  0  0  0  0  0  0  0
   -0.2506    0.6501    1.3752 O   0  0  0  0  0  0  0  0  0  0  0  0
    1.0103    0.9362   -0.7738 O   0  0  0  0  0  0  0  0  0  0  0  0
    1.0531    0.9276   -2.1477 C   0  0  0  0  0  0  0  0  0  0  0  0
    2.1800    0.3314   -2.7380 C   0  0  0  0  0  0  0  0  0  0  0  0
    3.2633   -0.2468   -1.9343 C   0  0  0  0  0  0  0  0  0  0  0  0
    4.3410    0.5497   -1.5230 C   0  0  0  0  0  0  0  0  0  0  0  0
    5.3977    0.0306   -0.7570 C   0  0  0  0  0  0  0  0  0  0  0  0
    6.5357    0.8848   -0.3553 C   0  0  0  0  0  0  0  0  0  0  0  0
    7.1045    0.8040    0.9277 C   0  0  0  0  0  0  0  0  0  0  0  0
    8.1932    1.6105    1.3108 C   0  0  0  0  0  0  0  0  0  0  0  0
    8.7823    1.4615    2.6949 C   0  0  0  0  0  0  0  0  0  0  0  0
    9.1871    0.1842    2.9425 F   0  0  0  0  0  0  0  0  0  0  0  0
    7.8898    1.7687    3.6748 F   0  0  0  0  0  0  0  0  0  0  0  0
    9.8698    2.2506    2.9128 F   0  0  0  0  0  0  0  0  0  0  0  0
    8.7097    2.5358    0.3928 C   0  0  0  0  0  0  0  0  0  0  0  0
    8.1567    2.6538   -0.8901 C   0  0  0  0  0  0  0  0  0  0  0  0
    8.7166    3.6382   -1.8884 C   0  0  0  0  0  0  0  0  0  0  0  0
    9.7547    3.1197   -2.5988 F   0  0  0  0  0  0  0  0  0  0  0  0
    9.1907    4.7731   -1.3034 F   0  0  0  0  0  0  0  0  0  0  0  0
    7.7984    4.0491   -2.8071 F   0  0  0  0  0  0  0  0  0  0  0  0
    7.0901    1.8142   -1.2522 C   0  0  0  0  0  0  0  0  0  0  0  0
    5.3310   -1.3271   -0.3933 C   0  0  0  0  0  0  0  0  0  0  0  0
    4.2586   -2.1588   -0.7711 C   0  0  0  0  0  0  0  0  0  0  0  0
    4.2019   -3.5717   -0.3439 C   0  0  0  0  0  0  0  0  0  0  0  0
    3.0149   -4.1281    0.1632 C   0  0  0  0  0  0  0  0  0  0  0  0
    2.9434   -5.4682    0.5834 C   0  0  0  0  0  0  0  0  0  0  0  0
    1.6415   -6.0129    1.1219 C   0  0  0  0  0  0  0  0  0  0  0  0
    0.5876   -5.7555    0.2992 F   0  0  0  0  0  0  0  0  0  0  0  0
    1.3155   -5.4772    2.3302 F   0  0  0  0  0  0  0  0  0  0  0  0
    1.6527   -7.3629    1.3015 F   0  0  0  0  0  0  0  0  0  0  0  0
    4.0939   -6.2658    0.5107 C   0  0  0  0  0  0  0  0  0  0  0  0
    5.2986   -5.7404    0.0220 C   0  0  0  0  0  0  0  0  0  0  0  0
    6.5390   -6.5986   -0.0605 C   0  0  0  0  0  0  0  0  0  0  0  0
    6.6429   -7.2493   -1.2502 F   0  0  0  0  0  0  0  0  0  0  0  0
    7.6881   -5.8784    0.0796 F   0  0  0  0  0  0  0  0  0  0  0  0
    6.5844   -7.5598    0.9026 F   0  0  0  0  0  0  0  0  0  0  0  0
    5.3324   -4.4035   -0.4147 C   0  0  0  0  0  0  0  0  0  0  0  0
    3.2379   -1.5954   -1.5540 C   0  0  0  0  0  0  0  0  0  0  0  0
    2.2594    0.3124   -4.1291 C   0  0  0  0  0  0  0  0  0  0  0  0
    1.2345    0.8377   -4.9200 C   0  0  0  0  0  0  0  0  0  0  0  0
    0.0991    1.4411   -4.3125 C   0  0  0  0  0  0  0  0  0  0  0  0
   -0.9299    1.8572   -5.1962 C   0  0  0  0  0  0  0  0  0  0  0  0
   -0.8228    1.7500   -6.5859 C   0  0  0  0  0  0  0  0  0  0  0  0
    0.3174    1.2016   -7.1482 C   0  0  0  0  0  0  0  0  0  0  0  0
    1.3360    0.7422   -6.3188 C   0  0  0  0  0  0  0  0  0  0  0  0
    0.0122    1.5539   -2.8745 C   0  0  0  0  0  0  0  0  0  0  0  0
   -1.0571    2.2587   -2.1828 C   0  0  0  0  0  0  0  0  0  0  0  0
   -1.8457    1.6115   -1.1862 C   0  0  0  0  0  0  0  0  0  0  0  0
   -1.4883    0.3259   -0.8099 O   0  0  0  0  0  0  0  0  0  0  0  0
   -3.0598    2.1516   -0.6537 C   0  0  0  0  0  0  0  0  0  0  0  0
   -3.9492    1.4176    0.3015 C   0  0  0  0  0  0  0  0  0  0  0  0
   -4.6990    2.0325    1.3286 C   0  0  0  0  0  0  0  0  0  0  0  0
   -5.4153    1.2831    2.2943 C   0  0  0  0  0  0  0  0  0  0  0  0
   -6.3092    1.9008    3.3011 C   0  0  0  0  0  0  0  0  0  0  0  0
   -7.5165    1.2552    3.6382 C   0  0  0  0  0  0  0  0  0  0  0  0
   -8.3865    1.7472    4.6201 C   0  0  0  0  0  0  0  0  0  0  0  0
   -9.6490    0.9871    4.9482 C   0  0  0  0  0  0  0  0  0  0  0  0
  -10.0910    1.2115    6.2166 F   0  0  0  0  0  0  0  0  0  0  0  0
   -9.4995   -0.3627    4.8380 F   0  0  0  0  0  0  0  0  0  0  0  0
  -10.6805    1.3215    4.1262 F   0  0  0  0  0  0  0  0  0  0  0  0
   -8.0681    2.9541    5.2522 C   0  0  0  0  0  0  0  0  0  0  0  0
   -6.8850    3.6423    4.9340 C   0  0  0  0  0  0  0  0  0  0  0  0
   -6.5748    4.9590    5.6125 C   0  0  0  0  0  0  0  0  0  0  0  0
   -7.1729    6.0113    4.9892 F   0  0  0  0  0  0  0  0  0  0  0  0
   -6.9952    5.0033    6.9078 F   0  0  0  0  0  0  0  0  0  0  0  0
   -5.2436    5.2446    5.6403 F   0  0  0  0  0  0  0  0  0  0  0  0
   -6.0164    3.1058    3.9595 C   0  0  0  0  0  0  0  0  0  0  0  0
   -5.2457   -0.1152    2.2966 C   0  0  0  0  0  0  0  0  0  0  0  0
   -4.5279   -0.7502    1.2930 C   0  0  0  0  0  0  0  0  0  0  0  0
   -4.0608   -2.1354    1.3859 C   0  0  0  0  0  0  0  0  0  0  0  0
   -2.6827   -2.3297    1.2045 C   0  0  0  0  0  0  0  0  0  0  0  0
   -2.0842   -3.5771    1.1060 C   0  0  0  0  0  0  0  0  0  0  0  0
   -0.6116   -3.6019    0.7287 C   0  0  0  0  0  0  0  0  0  0  0  0
   -0.1106   -4.8739    0.7355 F   0  0  0  0  0  0  0  0  0  0  0  0
    0.1723   -2.8933    1.5854 F   0  0  0  0  0  0  0  0  0  0  0  0
   -0.3679   -3.1193   -0.5177 F   0  0  0  0  0  0  0  0  0  0  0  0
   -2.9009   -4.6956    1.3314 C   0  0  0  0  0  0  0  0  0  0  0  0
   -4.2859   -4.5440    1.6153 C   0  0  0  0  0  0  0  0  0  0  0  0
   -5.1601   -5.7446    1.9394 C   0  0  0  0  0  0  0  0  0  0  0  0
   -4.8777   -6.8265    1.1617 F   0  0  0  0  0  0  0  0  0  0  0  0
   -6.4916   -5.5041    1.7801 F   0  0  0  0  0  0  0  0  0  0  0  0
   -5.0044   -6.1559    3.2273 F   0  0  0  0  0  0  0  0  0  0  0  0
   -4.8555   -3.2526    1.6214 C   0  0  0  0  0  0  0  0  0  0  0  0
   -4.0356    0.0282    0.2357 C   0  0  0  0  0  0  0  0  0  0  0  0
   -3.4109    3.4363   -1.0810 C   0  0  0  0  0  0  0  0  0  0  0  0
   -2.6064    4.1794   -1.9530 C   0  0  0  0  0  0  0  0  0  0  0  0
   -1.4221    3.6150   -2.4932 C   0  0  0  0  0  0  0  0  0  0  0  0
   -0.6310    4.4712   -3.3038 C   0  0  0  0  0  0  0  0  0  0  0  0
   -1.0134    5.7785   -3.6153 C   0  0  0  0  0  0  0  0  0  0  0  0
   -2.1995    6.2859   -3.1120 C   0  0  0  0  0  0  0  0  0  0  0  0
   -2.9868    5.4922   -2.2824 C   0  0  0  0  0  0  0  0  0  0  0  0
    0.3211    0.1905    2.0171 H   0  0  0  0  0  0  0  0  0  0  0  0
    4.3400    1.6036   -1.8002 H   0  0  0  0  0  0  0  0  0  0  0  0
    6.6961    0.1044    1.6583 H   0  0  0  0  0  0  0  0  0  0  0  0
    9.5502    3.1715    0.6770 H   0  0  0  0  0  0  0  0  0  0  0  0
    6.6900    1.8926   -2.2644 H   0  0  0  0  0  0  0  0  0  0  0  0
    6.1352   -1.7518    0.2060 H   0  0  0  0  0  0  0  0  0  0  0  0
    2.1192   -3.5083    0.2454 H   0  0  0  0  0  0  0  0  0  0  0  0
    4.0542   -7.3054    0.8411 H   0  0  0  0  0  0  0  0  0  0  0  0
    6.2652   -4.0106   -0.8208 H   0  0  0  0  0  0  0  0  0  0  0  0
    2.3972   -2.2133   -1.8706 H   0  0  0  0  0  0  0  0  0  0  0  0
    3.1299   -0.1403   -4.6029 H   0  0  0  0  0  0  0  0  0  0  0  0
   -1.8594    2.2680   -4.8065 H   0  0  0  0  0  0  0  0  0  0  0  0
   -1.6384    2.0894   -7.2197 H   0  0  0  0  0  0  0  0  0  0  0  0
    0.4095    1.1130   -8.2271 H   0  0  0  0  0  0  0  0  0  0  0  0
    2.2127    0.2902   -6.7798 H   0  0  0  0  0  0  0  0  0  0  0  0
   -4.7290    3.1182    1.3864 H   0  0  0  0  0  0  0  0  0  0  0  0
   -7.7938    0.3329    3.1240 H   0  0  0  0  0  0  0  0  0  0  0  0
   -8.7445    3.3635    6.0048 H   0  0  0  0  0  0  0  0  0  0  0  0
   -5.0924    3.6384    3.7321 H   0  0  0  0  0  0  0  0  0  0  0  0
   -5.6397   -0.7103    3.1184 H   0  0  0  0  0  0  0  0  0  0  0  0
   -2.0474   -1.4551    1.1081 H   0  0  0  0  0  0  0  0  0  0  0  0
   -2.4665   -5.6953    1.2909 H   0  0  0  0  0  0  0  0  0  0  0  0
   -5.9239   -3.1314    1.7933 H   0  0  0  0  0  0  0  0  0  0  0  0
   -3.5884   -0.4961   -0.6084 H   0  0  0  0  0  0  0  0  0  0  0  0
   -4.3365    3.8844   -0.7225 H   0  0  0  0  0  0  0  0  0  0  0  0
    0.3217    4.1281   -3.7046 H   0  0  0  0  0  0  0  0  0  0  0  0
   -0.3771    6.3929   -4.2472 H   0  0  0  0  0  0  0  0  0  0  0  0
   -2.5063    7.3009   -3.3492 H   0  0  0  0  0  0  0  0  0  0  0  0
   -3.9046    5.9183   -1.8805 H   0  0  0  0  0  0  0  0  0  0  0  0
  2  1  2  0  0  0  0
  2  3  1  0  0  0  0
  3 94  1  0  0  0  0
  4  2  1  0  0  0  0
  5  4  1  0  0  0  0
  6  5  1  0  0  0  0
  6  7  1  0  0  0  0
  7 40  2  0  0  0  0
  7  8  1  0  0  0  0
  8  9  2  0  0  0  0
  9 24  1  0  0  0  0
  9 10  1  0  0  0  0
 10 11  2  0  0  0  0
 11 12  1  0  0  0  0
 11 96  1  0  0  0  0
 12 13  1  0  0  0  0
 13 16  1  0  0  0  0
 13 14  1  0  0  0  0
 13 15  1  0  0  0  0
 17 97  1  0  0  0  0
 17 12  2  0  0  0  0
 18 17  1  0  0  0  0
 19 21  1  0  0  0  0
 19 18  1  0  0  0  0
 20 19  1  0  0  0  0
 22 19  1  0  0  0  0
 23 18  2  0  0  0  0
 23 10  1  0  0  0  0
 24 99  1  0  0  0  0
 25 24  2  0  0  0  0
 25 26  1  0  0  0  0
 26 27  1  0  0  0  0
 27100  1  0  0  0  0
 27 28  2  0  0  0  0
 28 29  1  0  0  0  0
 29 32  1  0  0  0  0
 29 31  1  0  0  0  0
 30 76  1  0  0  0  0
 33 28  1  0  0  0  0
 33101  1  0  0  0  0
 34 33  2  0  0  0  0
 35 34  1  0  0  0  0
 35 37  1  0  0  0  0
 35 38  1  0  0  0  0
 36 35  1  0  0  0  0
 39 26  2  0  0  0  0
 39 34  1  0  0  0  0
 40 25  1  0  0  0  0
 41  6  2  0  0  0  0
 42 43  1  0  0  0  0
 42 41  1  0  0  0  0
 43 48  1  0  0  0  0
 44105  1  0  0  0  0
 44 43  2  0  0  0  0
 45 44  1  0  0  0  0
 46 45  2  0  0  0  0
 46 47  1  0  0  0  0
 47 42  2  0  0  0  0
 48 49  1  0  0  0  0
 48  5  2  0  0  0  0
 49 50  1  0  0  0  0
 50 51  1  0  0  0  0
 50 52  2  0  0  0  0
 51  2  1  0  0  0  0
 52 53  1  0  0  0  0
 53 54  1  0  0  0  0
 54109  1  0  0  0  0
 54 55  2  0  0  0  0
 55 70  1  0  0  0  0
 55 56  1  0  0  0  0
 56 57  2  0  0  0  0
 56 69  1  0  0  0  0
 57 58  1  0  0  0  0
 58 59  1  0  0  0  0
 58 63  2  0  0  0  0
 59 60  1  0  0  0  0
 61 59  1  0  0  0  0
 62 59  1  0  0  0  0
 63111  1  0  0  0  0
 64 63  1  0  0  0  0
 64 65  1  0  0  0  0
 65 68  1  0  0  0  0
 65 67  1  0  0  0  0
 66 65  1  0  0  0  0
 69 64  2  0  0  0  0
 70113  1  0  0  0  0
 71 72  1  0  0  0  0
 71 70  2  0  0  0  0
 72 85  2  0  0  0  0
 73 72  1  0  0  0  0
 74 73  2  0  0  0  0
 74 79  1  0  0  0  0
 75 74  1  0  0  0  0
 75 77  1  0  0  0  0
 78 75  1  0  0  0  0
 79 80  2  0  0  0  0
 80 85  1  0  0  0  0
 80 81  1  0  0  0  0
 81 84  1  0  0  0  0
 82 81  1  0  0  0  0
 83 81  1  0  0  0  0
 85116  1  0  0  0  0
 86 53  2  0  0  0  0
 86 71  1  0  0  0  0
 87118  1  0  0  0  0
 87 52  1  0  0  0  0
 88 87  2  0  0  0  0
 89 49  2  0  0  0  0
 89 88  1  0  0  0  0
 90 89  1  0  0  0  0
 91 90  2  0  0  0  0
 91 92  1  0  0  0  0
 92 93  2  0  0  0  0
 93 88  1  0  0  0  0
 93122  1  0  0  0  0
 95  8  1  0  0  0  0
 98 23  1  0  0  0  0
102 39  1  0  0  0  0
103 40  1  0  0  0  0
104 41  1  0  0  0  0
106 45  1  0  0  0  0
107 46  1  0  0  0  0
108 47  1  0  0  0  0
110 57  1  0  0  0  0
112 69  1  0  0  0  0
114 73  1  0  0  0  0
115 79  1  0  0  0  0
117 86  1  0  0  0  0
119 90  1  0  0  0  0
120 91  1  0  0  0  0
121 92  1  0  0  0  0
M  RAD  2  29   2  75   2
M  END
$$$$
