O=P1(O)OC2=C(C3=C(OCC)C=CC(C)=C3)C=C4C(C=CC=C4)=C2C5=C(O1)C(C6=CC(C)=CC=C6OCC)=CC7=C5C=CC=C7
 OpenBabel09032010383D

 78 84  0  0  0  0  0  0  0  0999 V2000
   -1.0773   -1.4022   -2.7315 O   0  0  0  0  0  0  0  0  0  0  0  0
   -0.2551   -0.5741   -1.7936 P   0  0  0  0  0  0  0  0  0  0  0  0
    0.6449    0.4840   -2.6063 O   0  0  0  0  0  0  0  0  0  0  0  0
    0.8219   -1.4026   -0.9333 O   0  0  0  0  0  0  0  0  0  0  0  0
    1.4595   -0.7992    0.1290 C   0  0  0  0  0  0  0  0  0  0  0  0
    2.8535   -0.6245    0.0144 C   0  0  0  0  0  0  0  0  0  0  0  0
    3.6075   -0.9901   -1.2055 C   0  0  0  0  0  0  0  0  0  0  0  0
    4.4084   -0.0699   -1.9093 C   0  0  0  0  0  0  0  0  0  0  0  0
    4.5745    1.2280   -1.4898 O   0  0  0  0  0  0  0  0  0  0  0  0
    3.4926    2.0545   -1.9357 C   0  0  0  0  0  0  0  0  0  0  0  0
    3.8994    3.5025   -1.7327 C   0  0  0  0  0  0  0  0  0  0  0  0
    5.1502   -0.4586   -3.0285 C   0  0  0  0  0  0  0  0  0  0  0  0
    5.0771   -1.7689   -3.4961 C   0  0  0  0  0  0  0  0  0  0  0  0
    4.2708   -2.7032   -2.8416 C   0  0  0  0  0  0  0  0  0  0  0  0
    4.2202   -4.1277   -3.3099 C   0  0  0  0  0  0  0  0  0  0  0  0
    3.5616   -2.3109   -1.6949 C   0  0  0  0  0  0  0  0  0  0  0  0
    3.5248   -0.0698    1.1070 C   0  0  0  0  0  0  0  0  0  0  0  0
    2.8447    0.3505    2.2528 C   0  0  0  0  0  0  0  0  0  0  0  0
    1.4382    0.1842    2.3494 C   0  0  0  0  0  0  0  0  0  0  0  0
    0.8229    0.7380    3.5022 C   0  0  0  0  0  0  0  0  0  0  0  0
    1.5517    1.3509    4.5254 C   0  0  0  0  0  0  0  0  0  0  0  0
    2.9292    1.4515    4.4244 C   0  0  0  0  0  0  0  0  0  0  0  0
    3.5695    0.9608    3.2906 C   0  0  0  0  0  0  0  0  0  0  0  0
    0.7101   -0.4661    1.2880 C   0  0  0  0  0  0  0  0  0  0  0  0
   -0.7051   -0.7692    1.3659 C   0  0  0  0  0  0  0  0  0  0  0  0
   -1.5861   -0.3012    0.3598 C   0  0  0  0  0  0  0  0  0  0  0  0
   -1.0641    0.3395   -0.7428 O   0  0  0  0  0  0  0  0  0  0  0  0
   -2.9854   -0.3891    0.4473 C   0  0  0  0  0  0  0  0  0  0  0  0
   -3.8772    0.2066   -0.5592 C   0  0  0  0  0  0  0  0  0  0  0  0
   -4.1572   -0.4759   -1.7545 C   0  0  0  0  0  0  0  0  0  0  0  0
   -5.0086    0.0728   -2.7262 C   0  0  0  0  0  0  0  0  0  0  0  0
   -5.3074   -0.6906   -3.9827 C   0  0  0  0  0  0  0  0  0  0  0  0
   -5.6188    1.3081   -2.4821 C   0  0  0  0  0  0  0  0  0  0  0  0
   -5.3568    2.0010   -1.3010 C   0  0  0  0  0  0  0  0  0  0  0  0
   -4.4793    1.4606   -0.3599 C   0  0  0  0  0  0  0  0  0  0  0  0
   -4.2615    2.1475    0.8091 O   0  0  0  0  0  0  0  0  0  0  0  0
   -3.2706    3.1631    0.6110 C   0  0  0  0  0  0  0  0  0  0  0  0
   -2.6952    3.5251    1.9677 C   0  0  0  0  0  0  0  0  0  0  0  0
   -3.5334   -1.0406    1.5533 C   0  0  0  0  0  0  0  0  0  0  0  0
   -2.7237   -1.6171    2.5351 C   0  0  0  0  0  0  0  0  0  0  0  0
   -1.3105   -1.5064    2.4477 C   0  0  0  0  0  0  0  0  0  0  0  0
   -0.5655   -2.1910    3.4415 C   0  0  0  0  0  0  0  0  0  0  0  0
   -1.1730   -2.8875    4.4899 C   0  0  0  0  0  0  0  0  0  0  0  0
   -2.5550   -2.9390    4.5743 C   0  0  0  0  0  0  0  0  0  0  0  0
   -3.3246   -2.3119    3.5987 C   0  0  0  0  0  0  0  0  0  0  0  0
    0.9342    0.0842   -3.4470 H   0  0  0  0  0  0  0  0  0  0  0  0
    3.2775    1.8835   -2.9977 H   0  0  0  0  0  0  0  0  0  0  0  0
    2.5944    1.8517   -1.3444 H   0  0  0  0  0  0  0  0  0  0  0  0
    4.1256    3.6948   -0.6786 H   0  0  0  0  0  0  0  0  0  0  0  0
    3.1025    4.1798   -2.0522 H   0  0  0  0  0  0  0  0  0  0  0  0
    4.8071    3.7309   -2.3009 H   0  0  0  0  0  0  0  0  0  0  0  0
    5.7904    0.2624   -3.5295 H   0  0  0  0  0  0  0  0  0  0  0  0
    5.6625   -2.0579   -4.3658 H   0  0  0  0  0  0  0  0  0  0  0  0
    4.9861   -4.7176   -2.7971 H   0  0  0  0  0  0  0  0  0  0  0  0
    3.2381   -4.5689   -3.1093 H   0  0  0  0  0  0  0  0  0  0  0  0
    4.3894   -4.1906   -4.3900 H   0  0  0  0  0  0  0  0  0  0  0  0
    2.9671   -3.0543   -1.1636 H   0  0  0  0  0  0  0  0  0  0  0  0
    4.6046    0.0675    1.0426 H   0  0  0  0  0  0  0  0  0  0  0  0
   -0.2594    0.7120    3.6176 H   0  0  0  0  0  0  0  0  0  0  0  0
    1.0342    1.7514    5.3930 H   0  0  0  0  0  0  0  0  0  0  0  0
    3.5046    1.9265    5.2140 H   0  0  0  0  0  0  0  0  0  0  0  0
    4.6497    1.0742    3.2151 H   0  0  0  0  0  0  0  0  0  0  0  0
   -3.6994   -1.4483   -1.9340 H   0  0  0  0  0  0  0  0  0  0  0  0
   -5.5557   -0.0104   -4.8042 H   0  0  0  0  0  0  0  0  0  0  0  0
   -6.1511   -1.3676   -3.8175 H   0  0  0  0  0  0  0  0  0  0  0  0
   -4.4378   -1.2766   -4.2985 H   0  0  0  0  0  0  0  0  0  0  0  0
   -6.3045    1.7360   -3.2095 H   0  0  0  0  0  0  0  0  0  0  0  0
   -5.8392    2.9547   -1.1103 H   0  0  0  0  0  0  0  0  0  0  0  0
   -2.4595    2.8205   -0.0437 H   0  0  0  0  0  0  0  0  0  0  0  0
   -3.7423    4.0450    0.1625 H   0  0  0  0  0  0  0  0  0  0  0  0
   -2.2352    2.6486    2.4364 H   0  0  0  0  0  0  0  0  0  0  0  0
   -3.4852    3.8703    2.6428 H   0  0  0  0  0  0  0  0  0  0  0  0
   -1.9411    4.3115    1.8743 H   0  0  0  0  0  0  0  0  0  0  0  0
   -4.6180   -1.1075    1.6342 H   0  0  0  0  0  0  0  0  0  0  0  0
    0.5226   -2.2008    3.4058 H   0  0  0  0  0  0  0  0  0  0  0  0
   -0.5593   -3.3899    5.2329 H   0  0  0  0  0  0  0  0  0  0  0  0
   -3.0357   -3.4772    5.3865 H   0  0  0  0  0  0  0  0  0  0  0  0
   -4.4088   -2.3801    3.6689 H   0  0  0  0  0  0  0  0  0  0  0  0
  1  2  2  0  0  0  0
  2  4  1  0  0  0  0
  2 27  1  0  0  0  0
  3  2  1  0  0  0  0
  4  5  1  0  0  0  0
  5 24  1  0  0  0  0
  6  5  2  0  0  0  0
  6 17  1  0  0  0  0
  7  6  1  0  0  0  0
  8  9  1  0  0  0  0
  8  7  2  0  0  0  0
 10 11  1  0  0  0  0
 10  9  1  0  0  0  0
 10 48  1  0  0  0  0
 11 49  1  0  0  0  0
 12  8  1  0  0  0  0
 13 12  2  0  0  0  0
 13 14  1  0  0  0  0
 14 16  2  0  0  0  0
 15 55  1  0  0  0  0
 15 14  1  0  0  0  0
 15 54  1  0  0  0  0
 16  7  1  0  0  0  0
 16 57  1  0  0  0  0
 17 18  2  0  0  0  0
 18 19  1  0  0  0  0
 18 23  1  0  0  0  0
 19 20  1  0  0  0  0
 20 59  1  0  0  0  0
 20 21  2  0  0  0  0
 21 60  1  0  0  0  0
 22 21  1  0  0  0  0
 22 61  1  0  0  0  0
 23 22  2  0  0  0  0
 24 25  1  0  0  0  0
 24 19  2  0  0  0  0
 25 41  2  0  0  0  0
 26 28  2  0  0  0  0
 26 25  1  0  0  0  0
 27 26  1  0  0  0  0
 28 39  1  0  0  0  0
 29 35  1  0  0  0  0
 29 28  1  0  0  0  0
 30 29  2  0  0  0  0
 31 33  2  0  0  0  0
 31 30  1  0  0  0  0
 32 65  1  0  0  0  0
 32 31  1  0  0  0  0
 33 34  1  0  0  0  0
 34 68  1  0  0  0  0
 34 35  2  0  0  0  0
 35 36  1  0  0  0  0
 37 36  1  0  0  0  0
 37 38  1  0  0  0  0
 38 71  1  0  0  0  0
 38 72  1  0  0  0  0
 39 74  1  0  0  0  0
 39 40  2  0  0  0  0
 40 45  1  0  0  0  0
 41 40  1  0  0  0  0
 41 42  1  0  0  0  0
 42 43  2  0  0  0  0
 43 44  1  0  0  0  0
 43 76  1  0  0  0  0
 44 77  1  0  0  0  0
 45 78  1  0  0  0  0
 45 44  2  0  0  0  0
 46  3  1  0  0  0  0
 47 10  1  0  0  0  0
 50 11  1  0  0  0  0
 51 11  1  0  0  0  0
 52 12  1  0  0  0  0
 53 13  1  0  0  0  0
 56 15  1  0  0  0  0
 58 17  1  0  0  0  0
 62 23  1  0  0  0  0
 63 30  1  0  0  0  0
 64 32  1  0  0  0  0
 66 32  1  0  0  0  0
 67 33  1  0  0  0  0
 69 37  1  0  0  0  0
 70 37  1  0  0  0  0
 73 38  1  0  0  0  0
 75 42  1  0  0  0  0
M  END
$$$$
