O=P1(O)OC2=C([Si](C3=CC=C(C(C)(C)C)C=C3)(C4=CC=C(C(C)(C)C)C=C4)C5=CC=C(C(C)(C)C)C=C5)C=C6C(CCCC6)=C2C7=C(O1)C([Si](C8=CC=C(C(C)(C)C)C=C8)(C9=CC=C(C(C)(C)C)C=C9)C%10=CC=C(C(C)(C)C)C=C%10)=CC%11=C7CCCC%11
 OpenBabel09032010373D

184194  0  0  0  0  0  0  0  0999 V2000
   -1.0025   -0.2721    1.9001 O   0  0  0  0  0  0  0  0  0  0  0  0
   -0.1974   -0.3303    0.6370 P   0  0  0  0  0  0  0  0  0  0  0  0
    0.3518   -1.8127    0.3484 O   0  0  0  0  0  0  0  0  0  0  0  0
   -0.9948    0.0261   -0.7208 O   0  0  0  0  0  0  0  0  0  0  0  0
   -1.3022    1.3447   -0.9240 C   0  0  0  0  0  0  0  0  0  0  0  0
   -2.6487    1.7485   -0.8681 C   0  0  0  0  0  0  0  0  0  0  0  0
   -4.1202    0.5929   -0.7113 Si  0  0  0  0  0  0  0  0  0  0  0  0
   -4.9772    0.4719   -2.3781 C   0  0  0  0  0  0  0  0  0  0  0  0
   -6.0221   -0.4481   -2.5774 C   0  0  0  0  0  0  0  0  0  0  0  0
   -6.6676   -0.5631   -3.8149 C   0  0  0  0  0  0  0  0  0  0  0  0
   -6.2976    0.2275   -4.9156 C   0  0  0  0  0  0  0  0  0  0  0  0
   -7.0267    0.0723   -6.2606 C   0  0  0  0  0  0  0  0  0  0  0  0
   -8.5299    0.3720   -6.0745 C   0  0  0  0  0  0  0  0  0  0  0  0
   -6.8571   -1.3720   -6.7791 C   0  0  0  0  0  0  0  0  0  0  0  0
   -6.5061    1.0191   -7.3657 C   0  0  0  0  0  0  0  0  0  0  0  0
   -5.2482    1.1355   -4.7194 C   0  0  0  0  0  0  0  0  0  0  0  0
   -4.6012    1.2551   -3.4800 C   0  0  0  0  0  0  0  0  0  0  0  0
   -3.6649   -1.1474   -0.2293 C   0  0  0  0  0  0  0  0  0  0  0  0
   -3.8280   -1.6432    1.0717 C   0  0  0  0  0  0  0  0  0  0  0  0
   -3.4409   -2.9481    1.4110 C   0  0  0  0  0  0  0  0  0  0  0  0
   -2.8759   -3.8234    0.4689 C   0  0  0  0  0  0  0  0  0  0  0  0
   -2.4499   -5.2415    0.8805 C   0  0  0  0  0  0  0  0  0  0  0  0
   -1.7776   -6.0455   -0.2552 C   0  0  0  0  0  0  0  0  0  0  0  0
   -3.6922   -6.0365    1.3353 C   0  0  0  0  0  0  0  0  0  0  0  0
   -1.4392   -5.1740    2.0456 C   0  0  0  0  0  0  0  0  0  0  0  0
   -2.7329   -3.3380   -0.8360 C   0  0  0  0  0  0  0  0  0  0  0  0
   -3.1228   -2.0351   -1.1778 C   0  0  0  0  0  0  0  0  0  0  0  0
   -5.2787    1.3571    0.5443 C   0  0  0  0  0  0  0  0  0  0  0  0
   -6.6336    1.6043    0.2756 C   0  0  0  0  0  0  0  0  0  0  0  0
   -7.4720    2.1934    1.2328 C   0  0  0  0  0  0  0  0  0  0  0  0
   -6.9978    2.5676    2.5016 C   0  0  0  0  0  0  0  0  0  0  0  0
   -7.9494    3.2102    3.5251 C   0  0  0  0  0  0  0  0  0  0  0  0
   -9.1117    2.2418    3.8337 C   0  0  0  0  0  0  0  0  0  0  0  0
   -8.5214    4.5234    2.9488 C   0  0  0  0  0  0  0  0  0  0  0  0
   -7.2746    3.5575    4.8714 C   0  0  0  0  0  0  0  0  0  0  0  0
   -5.6428    2.3285    2.7674 C   0  0  0  0  0  0  0  0  0  0  0  0
   -4.8015    1.7400    1.8114 C   0  0  0  0  0  0  0  0  0  0  0  0
   -2.8823    3.1332   -0.9565 C   0  0  0  0  0  0  0  0  0  0  0  0
   -1.8371    4.0632   -1.0767 C   0  0  0  0  0  0  0  0  0  0  0  0
   -0.5026    3.6128   -1.1620 C   0  0  0  0  0  0  0  0  0  0  0  0
    0.6326    4.6262   -1.1434 C   0  0  0  0  0  0  0  0  0  0  0  0
    0.2170    6.0091   -0.6437 C   0  0  0  0  0  0  0  0  0  0  0  0
   -1.0393    6.4620   -1.3691 C   0  0  0  0  0  0  0  0  0  0  0  0
   -2.1976    5.5309   -1.0315 C   0  0  0  0  0  0  0  0  0  0  0  0
   -0.2154    2.2167   -1.1836 C   0  0  0  0  0  0  0  0  0  0  0  0
    1.0943    1.6806   -1.4555 C   0  0  0  0  0  0  0  0  0  0  0  0
    1.7913    0.8967   -0.4911 C   0  0  0  0  0  0  0  0  0  0  0  0
    1.1348    0.5817    0.6709 O   0  0  0  0  0  0  0  0  0  0  0  0
    3.1332    0.4866   -0.6311 C   0  0  0  0  0  0  0  0  0  0  0  0
    4.1439   -0.4190    0.6679 Si  0  0  0  0  0  0  0  0  0  0  0  0
    3.1317   -1.3228    1.9480 C   0  0  0  0  0  0  0  0  0  0  0  0
    2.5050   -0.6226    2.9930 C   0  0  0  0  0  0  0  0  0  0  0  0
    1.6950   -1.2749    3.9298 C   0  0  0  0  0  0  0  0  0  0  0  0
    1.4749   -2.6599    3.8762 C   0  0  0  0  0  0  0  0  0  0  0  0
    0.5451   -3.3354    4.8973 C   0  0  0  0  0  0  0  0  0  0  0  0
   -0.8105   -2.5949    4.9660 C   0  0  0  0  0  0  0  0  0  0  0  0
    0.2313   -4.8117    4.5647 C   0  0  0  0  0  0  0  0  0  0  0  0
    1.2122   -3.2969    6.2870 C   0  0  0  0  0  0  0  0  0  0  0  0
    2.1524   -3.3702    2.8764 C   0  0  0  0  0  0  0  0  0  0  0  0
    2.9646   -2.7174    1.9353 C   0  0  0  0  0  0  0  0  0  0  0  0
    5.2245   -1.6611   -0.2342 C   0  0  0  0  0  0  0  0  0  0  0  0
    6.5964   -1.7973    0.0259 C   0  0  0  0  0  0  0  0  0  0  0  0
    7.3806   -2.7385   -0.6579 C   0  0  0  0  0  0  0  0  0  0  0  0
    6.8302   -3.5829   -1.6321 C   0  0  0  0  0  0  0  0  0  0  0  0
    7.6624   -4.6257   -2.3971 C   0  0  0  0  0  0  0  0  0  0  0  0
    7.0878   -6.0363   -2.1435 C   0  0  0  0  0  0  0  0  0  0  0  0
    7.6122   -4.3213   -3.9100 C   0  0  0  0  0  0  0  0  0  0  0  0
    9.1521   -4.6595   -1.9871 C   0  0  0  0  0  0  0  0  0  0  0  0
    5.4584   -3.4413   -1.8973 C   0  0  0  0  0  0  0  0  0  0  0  0
    4.6734   -2.5033   -1.2169 C   0  0  0  0  0  0  0  0  0  0  0  0
    5.2308    0.8098    1.5711 C   0  0  0  0  0  0  0  0  0  0  0  0
    5.4462    2.1123    1.0978 C   0  0  0  0  0  0  0  0  0  0  0  0
    6.2641    3.0131    1.7941 C   0  0  0  0  0  0  0  0  0  0  0  0
    6.9037    2.6591    2.9945 C   0  0  0  0  0  0  0  0  0  0  0  0
    7.7910    3.6775    3.7291 C   0  0  0  0  0  0  0  0  0  0  0  0
    6.9516    4.9149    4.1141 C   0  0  0  0  0  0  0  0  0  0  0  0
    8.4234    3.1317    5.0294 C   0  0  0  0  0  0  0  0  0  0  0  0
    8.9498    4.1165    2.8079 C   0  0  0  0  0  0  0  0  0  0  0  0
    6.6857    1.3595    3.4690 C   0  0  0  0  0  0  0  0  0  0  0  0
    5.8680    0.4562    2.7751 C   0  0  0  0  0  0  0  0  0  0  0  0
    3.7580    0.8134   -1.8502 C   0  0  0  0  0  0  0  0  0  0  0  0
    3.0838    1.4730   -2.8884 C   0  0  0  0  0  0  0  0  0  0  0  0
    1.7445    1.8755   -2.7093 C   0  0  0  0  0  0  0  0  0  0  0  0
    0.9737    2.4409   -3.8956 C   0  0  0  0  0  0  0  0  0  0  0  0
    1.6204    2.1537   -5.2498 C   0  0  0  0  0  0  0  0  0  0  0  0
    3.0916    2.5297   -5.2048 C   0  0  0  0  0  0  0  0  0  0  0  0
    3.8194    1.6477   -4.1981 C   0  0  0  0  0  0  0  0  0  0  0  0
    0.4050   -2.2884    1.1983 H   0  0  0  0  0  0  0  0  0  0  0  0
   -6.3533   -1.0999   -1.7678 H   0  0  0  0  0  0  0  0  0  0  0  0
   -7.4687   -1.2938   -3.9024 H   0  0  0  0  0  0  0  0  0  0  0  0
   -9.0677    0.3028   -7.0273 H   0  0  0  0  0  0  0  0  0  0  0  0
   -9.0104   -0.3301   -5.3843 H   0  0  0  0  0  0  0  0  0  0  0  0
   -8.6844    1.3821   -5.6768 H   0  0  0  0  0  0  0  0  0  0  0  0
   -5.7971   -1.6278   -6.8944 H   0  0  0  0  0  0  0  0  0  0  0  0
   -7.3016   -2.1101   -6.1024 H   0  0  0  0  0  0  0  0  0  0  0  0
   -7.3394   -1.5008   -7.7551 H   0  0  0  0  0  0  0  0  0  0  0  0
   -7.0580    0.8742   -8.3023 H   0  0  0  0  0  0  0  0  0  0  0  0
   -6.6226    2.0718   -7.0827 H   0  0  0  0  0  0  0  0  0  0  0  0
   -5.4473    0.8394   -7.5854 H   0  0  0  0  0  0  0  0  0  0  0  0
   -4.8949    1.7753   -5.5232 H   0  0  0  0  0  0  0  0  0  0  0  0
   -3.7858    1.9734   -3.4103 H   0  0  0  0  0  0  0  0  0  0  0  0
   -4.2395   -1.0237    1.8661 H   0  0  0  0  0  0  0  0  0  0  0  0
   -3.5834   -3.2629    2.4425 H   0  0  0  0  0  0  0  0  0  0  0  0
   -2.4549   -6.1891   -1.1052 H   0  0  0  0  0  0  0  0  0  0  0  0
   -1.4808   -7.0435    0.0891 H   0  0  0  0  0  0  0  0  0  0  0  0
   -0.8721   -5.5466   -0.6199 H   0  0  0  0  0  0  0  0  0  0  0  0
   -4.1753   -5.5832    2.2081 H   0  0  0  0  0  0  0  0  0  0  0  0
   -3.4253   -7.0632    1.6117 H   0  0  0  0  0  0  0  0  0  0  0  0
   -4.4412   -6.0899    0.5363 H   0  0  0  0  0  0  0  0  0  0  0  0
   -1.0771   -6.1735    2.3139 H   0  0  0  0  0  0  0  0  0  0  0  0
   -1.8812   -4.7446    2.9505 H   0  0  0  0  0  0  0  0  0  0  0  0
   -0.5682   -4.5640    1.7793 H   0  0  0  0  0  0  0  0  0  0  0  0
   -2.3038   -3.9475   -1.6261 H   0  0  0  0  0  0  0  0  0  0  0  0
   -2.9668   -1.7174   -2.2097 H   0  0  0  0  0  0  0  0  0  0  0  0
   -7.0747    1.3537   -0.6875 H   0  0  0  0  0  0  0  0  0  0  0  0
   -8.5141    2.3580    0.9625 H   0  0  0  0  0  0  0  0  0  0  0  0
   -9.7182    2.0261    2.9473 H   0  0  0  0  0  0  0  0  0  0  0  0
   -8.7369    1.2852    4.2167 H   0  0  0  0  0  0  0  0  0  0  0  0
   -9.7864    2.6621    4.5887 H   0  0  0  0  0  0  0  0  0  0  0  0
   -7.7182    5.2236    2.6902 H   0  0  0  0  0  0  0  0  0  0  0  0
   -9.1147    4.3549    2.0433 H   0  0  0  0  0  0  0  0  0  0  0  0
   -9.1770    5.0205    3.6733 H   0  0  0  0  0  0  0  0  0  0  0  0
   -6.4567    4.2754    4.7395 H   0  0  0  0  0  0  0  0  0  0  0  0
   -6.8697    2.6646    5.3619 H   0  0  0  0  0  0  0  0  0  0  0  0
   -7.9911    4.0103    5.5672 H   0  0  0  0  0  0  0  0  0  0  0  0
   -5.1964    2.5913    3.7227 H   0  0  0  0  0  0  0  0  0  0  0  0
   -3.7553    1.5848    2.0826 H   0  0  0  0  0  0  0  0  0  0  0  0
   -3.9033    3.5186   -0.8983 H   0  0  0  0  0  0  0  0  0  0  0  0
    1.4408    4.2671   -0.4950 H   0  0  0  0  0  0  0  0  0  0  0  0
    1.0400    4.7424   -2.1499 H   0  0  0  0  0  0  0  0  0  0  0  0
    0.0351    5.9815    0.4381 H   0  0  0  0  0  0  0  0  0  0  0  0
    1.0313    6.7219   -0.8156 H   0  0  0  0  0  0  0  0  0  0  0  0
   -0.8616    6.4625   -2.4520 H   0  0  0  0  0  0  0  0  0  0  0  0
   -1.2955    7.4887   -1.0852 H   0  0  0  0  0  0  0  0  0  0  0  0
   -3.0242    5.7302   -1.7241 H   0  0  0  0  0  0  0  0  0  0  0  0
   -2.5531    5.7584   -0.0182 H   0  0  0  0  0  0  0  0  0  0  0  0
    2.6148    0.4593    3.0852 H   0  0  0  0  0  0  0  0  0  0  0  0
    1.2299   -0.6673    4.7037 H   0  0  0  0  0  0  0  0  0  0  0  0
   -1.2747   -2.5275    3.9755 H   0  0  0  0  0  0  0  0  0  0  0  0
   -0.7102   -1.5751    5.3525 H   0  0  0  0  0  0  0  0  0  0  0  0
   -1.5120   -3.1146    5.6292 H   0  0  0  0  0  0  0  0  0  0  0  0
   -0.4688   -5.2406    5.2916 H   0  0  0  0  0  0  0  0  0  0  0  0
    1.1329   -5.4346    4.5892 H   0  0  0  0  0  0  0  0  0  0  0  0
   -0.2258   -4.9108    3.5730 H   0  0  0  0  0  0  0  0  0  0  0  0
    2.1804   -3.8115    6.2757 H   0  0  0  0  0  0  0  0  0  0  0  0
    0.5838   -3.7847    7.0411 H   0  0  0  0  0  0  0  0  0  0  0  0
    1.3911   -2.2705    6.6270 H   0  0  0  0  0  0  0  0  0  0  0  0
    2.0648   -4.4504    2.7908 H   0  0  0  0  0  0  0  0  0  0  0  0
    3.4500   -3.3369    1.1821 H   0  0  0  0  0  0  0  0  0  0  0  0
    7.0948   -1.1728    0.7656 H   0  0  0  0  0  0  0  0  0  0  0  0
    8.4357   -2.7844   -0.3995 H   0  0  0  0  0  0  0  0  0  0  0  0
    7.6851   -6.8034   -2.6502 H   0  0  0  0  0  0  0  0  0  0  0  0
    6.0602   -6.1376   -2.5096 H   0  0  0  0  0  0  0  0  0  0  0  0
    7.0804   -6.2725   -1.0727 H   0  0  0  0  0  0  0  0  0  0  0  0
    6.5953   -4.3861   -4.3124 H   0  0  0  0  0  0  0  0  0  0  0  0
    7.9862   -3.3126   -4.1219 H   0  0  0  0  0  0  0  0  0  0  0  0
    8.2265   -5.0308   -4.4766 H   0  0  0  0  0  0  0  0  0  0  0  0
    9.2731   -4.9049   -0.9256 H   0  0  0  0  0  0  0  0  0  0  0  0
    9.6441   -3.6978   -2.1739 H   0  0  0  0  0  0  0  0  0  0  0  0
    9.7018   -5.4180   -2.5575 H   0  0  0  0  0  0  0  0  0  0  0  0
    4.9721   -4.0643   -2.6451 H   0  0  0  0  0  0  0  0  0  0  0  0
    3.6145   -2.4462   -1.4716 H   0  0  0  0  0  0  0  0  0  0  0  0
    4.9825    2.4655    0.1784 H   0  0  0  0  0  0  0  0  0  0  0  0
    6.3900    4.0095    1.3754 H   0  0  0  0  0  0  0  0  0  0  0  0
    6.1005    4.6332    4.7455 H   0  0  0  0  0  0  0  0  0  0  0  0
    6.5518    5.4341    3.2362 H   0  0  0  0  0  0  0  0  0  0  0  0
    7.5532    5.6431    4.6706 H   0  0  0  0  0  0  0  0  0  0  0  0
    9.0661    2.2656    4.8328 H   0  0  0  0  0  0  0  0  0  0  0  0
    9.0470    3.8920    5.5148 H   0  0  0  0  0  0  0  0  0  0  0  0
    7.6585    2.8318    5.7552 H   0  0  0  0  0  0  0  0  0  0  0  0
    9.6189    4.8173    3.3209 H   0  0  0  0  0  0  0  0  0  0  0  0
    9.5492    3.2551    2.4902 H   0  0  0  0  0  0  0  0  0  0  0  0
    8.5923    4.6200    1.9030 H   0  0  0  0  0  0  0  0  0  0  0  0
    7.1396    1.0088    4.3918 H   0  0  0  0  0  0  0  0  0  0  0  0
    5.7371   -0.5390    3.2021 H   0  0  0  0  0  0  0  0  0  0  0  0
    4.7966    0.5230   -2.0283 H   0  0  0  0  0  0  0  0  0  0  0  0
    0.8836    3.5243   -3.7928 H   0  0  0  0  0  0  0  0  0  0  0  0
   -0.0386    2.0200   -3.9172 H   0  0  0  0  0  0  0  0  0  0  0  0
    1.1071    2.7256   -6.0309 H   0  0  0  0  0  0  0  0  0  0  0  0
    1.5125    1.0916   -5.5034 H   0  0  0  0  0  0  0  0  0  0  0  0
    3.1959    3.5854   -4.9237 H   0  0  0  0  0  0  0  0  0  0  0  0
    3.5466    2.4145   -6.1948 H   0  0  0  0  0  0  0  0  0  0  0  0
    3.9636    0.6521   -4.6375 H   0  0  0  0  0  0  0  0  0  0  0  0
    4.8129    2.0724   -4.0100 H   0  0  0  0  0  0  0  0  0  0  0  0
  2 48  1  0  0  0  0
  2  1  2  0  0  0  0
  3  2  1  0  0  0  0
  3 88  1  0  0  0  0
  4  2  1  0  0  0  0
  5  6  2  0  0  0  0
  5  4  1  0  0  0  0
  6  7  1  0  0  0  0
  7 18  1  0  0  0  0
  7 28  1  0  0  0  0
  8  7  1  0  0  0  0
  9  8  1  0  0  0  0
  9 89  1  0  0  0  0
 10  9  2  0  0  0  0
 11 16  2  0  0  0  0
 11 10  1  0  0  0  0
 12 13  1  0  0  0  0
 12 11  1  0  0  0  0
 13 93  1  0  0  0  0
 13 92  1  0  0  0  0
 14 12  1  0  0  0  0
 14 95  1  0  0  0  0
 15 98  1  0  0  0  0
 15 12  1  0  0  0  0
 16 17  1  0  0  0  0
 17101  1  0  0  0  0
 17  8  2  0  0  0  0
 18 19  2  0  0  0  0
 19 20  1  0  0  0  0
 19102  1  0  0  0  0
 20103  1  0  0  0  0
 21 22  1  0  0  0  0
 21 20  2  0  0  0  0
 22 24  1  0  0  0  0
 22 25  1  0  0  0  0
 23105  1  0  0  0  0
 23 22  1  0  0  0  0
 24108  1  0  0  0  0
 24107  1  0  0  0  0
 25110  1  0  0  0  0
 25111  1  0  0  0  0
 26 21  1  0  0  0  0
 27 26  2  0  0  0  0
 27 18  1  0  0  0  0
 28 37  1  0  0  0  0
 29 28  2  0  0  0  0
 29 30  1  0  0  0  0
 30 31  2  0  0  0  0
 31 36  1  0  0  0  0
 31 32  1  0  0  0  0
 32 33  1  0  0  0  0
 32 35  1  0  0  0  0
 33118  1  0  0  0  0
 33119  1  0  0  0  0
 34 32  1  0  0  0  0
 34122  1  0  0  0  0
 35124  1  0  0  0  0
 35125  1  0  0  0  0
 36126  1  0  0  0  0
 37127  1  0  0  0  0
 37 36  2  0  0  0  0
 38128  1  0  0  0  0
 38  6  1  0  0  0  0
 39 44  1  0  0  0  0
 39 38  2  0  0  0  0
 40 41  1  0  0  0  0
 40 39  1  0  0  0  0
 41 42  1  0  0  0  0
 41129  1  0  0  0  0
 42131  1  0  0  0  0
 43134  1  0  0  0  0
 43 44  1  0  0  0  0
 43 42  1  0  0  0  0
 44136  1  0  0  0  0
 45 40  2  0  0  0  0
 45  5  1  0  0  0  0
 46 45  1  0  0  0  0
 46 47  2  0  0  0  0
 47 48  1  0  0  0  0
 49 47  1  0  0  0  0
 49 50  1  0  0  0  0
 50 71  1  0  0  0  0
 50 51  1  0  0  0  0
 51 52  1  0  0  0  0
 52137  1  0  0  0  0
 52 53  2  0  0  0  0
 53138  1  0  0  0  0
 54 53  1  0  0  0  0
 54 55  1  0  0  0  0
 55 56  1  0  0  0  0
 55 58  1  0  0  0  0
 56140  1  0  0  0  0
 56141  1  0  0  0  0
 57143  1  0  0  0  0
 57 55  1  0  0  0  0
 57142  1  0  0  0  0
 58147  1  0  0  0  0
 58146  1  0  0  0  0
 59 54  2  0  0  0  0
 60 51  2  0  0  0  0
 60 59  1  0  0  0  0
 61 62  1  0  0  0  0
 61 50  1  0  0  0  0
 62150  1  0  0  0  0
 63151  1  0  0  0  0
 63 62  2  0  0  0  0
 64 63  1  0  0  0  0
 65 66  1  0  0  0  0
 65 68  1  0  0  0  0
 65 64  1  0  0  0  0
 66154  1  0  0  0  0
 67 65  1  0  0  0  0
 68158  1  0  0  0  0
 69 64  2  0  0  0  0
 69 70  1  0  0  0  0
 70 61  2  0  0  0  0
 71 80  1  0  0  0  0
 72 71  2  0  0  0  0
 72 73  1  0  0  0  0
 73 74  2  0  0  0  0
 74 79  1  0  0  0  0
 74 75  1  0  0  0  0
 75 76  1  0  0  0  0
 75 77  1  0  0  0  0
 76167  1  0  0  0  0
 76165  1  0  0  0  0
 77169  1  0  0  0  0
 77170  1  0  0  0  0
 78171  1  0  0  0  0
 78 75  1  0  0  0  0
 79174  1  0  0  0  0
 80175  1  0  0  0  0
 80 79  2  0  0  0  0
 81 49  2  0  0  0  0
 82 83  2  0  0  0  0
 82 81  1  0  0  0  0
 83 46  1  0  0  0  0
 84177  1  0  0  0  0
 84 83  1  0  0  0  0
 85 86  1  0  0  0  0
 85 84  1  0  0  0  0
 86181  1  0  0  0  0
 86 87  1  0  0  0  0
 87184  1  0  0  0  0
 87 82  1  0  0  0  0
 90 10  1  0  0  0  0
 91 13  1  0  0  0  0
 94 14  1  0  0  0  0
 96 14  1  0  0  0  0
 97 15  1  0  0  0  0
 99 15  1  0  0  0  0
100 16  1  0  0  0  0
104 23  1  0  0  0  0
106 23  1  0  0  0  0
109 24  1  0  0  0  0
112 25  1  0  0  0  0
113 26  1  0  0  0  0
114 27  1  0  0  0  0
115 29  1  0  0  0  0
116 30  1  0  0  0  0
117 33  1  0  0  0  0
120 34  1  0  0  0  0
121 34  1  0  0  0  0
123 35  1  0  0  0  0
130 41  1  0  0  0  0
132 42  1  0  0  0  0
133 43  1  0  0  0  0
135 44  1  0  0  0  0
139 56  1  0  0  0  0
144 57  1  0  0  0  0
145 58  1  0  0  0  0
148 59  1  0  0  0  0
149 60  1  0  0  0  0
152 66  1  0  0  0  0
153 66  1  0  0  0  0
155 67  1  0  0  0  0
156 67  1  0  0  0  0
157 67  1  0  0  0  0
159 68  1  0  0  0  0
160 68  1  0  0  0  0
161 69  1  0  0  0  0
162 70  1  0  0  0  0
163 72  1  0  0  0  0
164 73  1  0  0  0  0
166 76  1  0  0  0  0
168 77  1  0  0  0  0
172 78  1  0  0  0  0
173 78  1  0  0  0  0
176 81  1  0  0  0  0
178 84  1  0  0  0  0
179 85  1  0  0  0  0
180 85  1  0  0  0  0
182 86  1  0  0  0  0
183 87  1  0  0  0  0
M  END
$$$$
