O=P1(O)OC2=C(C3=C(C=CC4=CC=CC(C=C5)=C46)C6=C5C=C3)C=C7C(C=CC=C7)=C2C8=C(O1)C(C9=CC=C(C=C%10)C%11=C9C=CC%12=CC=CC%10=C%11%12)=CC%13=C8C=CC=C%13
 OpenBabel09032010373D

 86 98  0  0  0  0  0  0  0  0999 V2000
    0.7860    0.5391   -1.7780 O   0  0  0  0  0  0  0  0  0  0  0  0
   -0.0024   -0.0194   -0.6372 P   0  0  0  0  0  0  0  0  0  0  0  0
   -0.9501   -1.2322   -1.0971 O   0  0  0  0  0  0  0  0  0  0  0  0
    0.8400   -0.6629    0.5769 O   0  0  0  0  0  0  0  0  0  0  0  0
    1.3968    0.2005    1.4919 C   0  0  0  0  0  0  0  0  0  0  0  0
    2.7987    0.2850    1.5177 C   0  0  0  0  0  0  0  0  0  0  0  0
    3.6595   -0.5440    0.6511 C   0  0  0  0  0  0  0  0  0  0  0  0
    4.2953   -0.0399   -0.5180 C   0  0  0  0  0  0  0  0  0  0  0  0
    4.1107    1.2763   -0.9922 C   0  0  0  0  0  0  0  0  0  0  0  0
    4.7561    1.7430   -2.1399 C   0  0  0  0  0  0  0  0  0  0  0  0
    5.6158    0.9115   -2.8612 C   0  0  0  0  0  0  0  0  0  0  0  0
    6.2722    1.3705   -4.0126 C   0  0  0  0  0  0  0  0  0  0  0  0
    7.1274    0.5315   -4.7242 C   0  0  0  0  0  0  0  0  0  0  0  0
    7.3358   -0.7779   -4.2952 C   0  0  0  0  0  0  0  0  0  0  0  0
    6.6880   -1.2653   -3.1503 C   0  0  0  0  0  0  0  0  0  0  0  0
    6.8834   -2.5806   -2.7154 C   0  0  0  0  0  0  0  0  0  0  0  0
    6.2311   -3.0567   -1.5777 C   0  0  0  0  0  0  0  0  0  0  0  0
    5.8204   -0.4154   -2.4217 C   0  0  0  0  0  0  0  0  0  0  0  0
    5.1587   -0.8916   -1.2577 C   0  0  0  0  0  0  0  0  0  0  0  0
    5.3722   -2.2283   -0.8434 C   0  0  0  0  0  0  0  0  0  0  0  0
    4.7232   -2.7093    0.2962 C   0  0  0  0  0  0  0  0  0  0  0  0
    3.8819   -1.8789    1.0323 C   0  0  0  0  0  0  0  0  0  0  0  0
    3.3858    1.1578    2.4364 C   0  0  0  0  0  0  0  0  0  0  0  0
    2.6107    1.9492    3.2878 C   0  0  0  0  0  0  0  0  0  0  0  0
    1.1945    1.8418    3.2677 C   0  0  0  0  0  0  0  0  0  0  0  0
    0.4861    2.7421    4.1041 C   0  0  0  0  0  0  0  0  0  0  0  0
    1.1309    3.6459    4.9528 C   0  0  0  0  0  0  0  0  0  0  0  0
    2.5151    3.6951    4.9839 C   0  0  0  0  0  0  0  0  0  0  0  0
    3.2492    2.8556    4.1513 C   0  0  0  0  0  0  0  0  0  0  0  0
    0.5505    0.8929    2.3932 C   0  0  0  0  0  0  0  0  0  0  0  0
   -0.8712    0.6122    2.4172 C   0  0  0  0  0  0  0  0  0  0  0  0
   -1.6376    0.7066    1.2309 C   0  0  0  0  0  0  0  0  0  0  0  0
   -1.0225    1.0258    0.0418 O   0  0  0  0  0  0  0  0  0  0  0  0
   -3.0388    0.5857    1.1939 C   0  0  0  0  0  0  0  0  0  0  0  0
   -3.8009    0.7681   -0.0567 C   0  0  0  0  0  0  0  0  0  0  0  0
   -4.0451    2.0810   -0.4945 C   0  0  0  0  0  0  0  0  0  0  0  0
   -4.7314    2.3290   -1.6801 C   0  0  0  0  0  0  0  0  0  0  0  0
   -5.1901    1.2698   -2.4665 C   0  0  0  0  0  0  0  0  0  0  0  0
   -5.8689    1.5163   -3.6666 C   0  0  0  0  0  0  0  0  0  0  0  0
   -6.3192    0.4620   -4.4610 C   0  0  0  0  0  0  0  0  0  0  0  0
   -4.9615   -0.0635   -2.0479 C   0  0  0  0  0  0  0  0  0  0  0  0
   -4.2709   -0.3263   -0.8361 C   0  0  0  0  0  0  0  0  0  0  0  0
   -4.0727   -1.6768   -0.4752 C   0  0  0  0  0  0  0  0  0  0  0  0
   -4.5313   -2.7288   -1.2714 C   0  0  0  0  0  0  0  0  0  0  0  0
   -5.2067   -2.4729   -2.4660 C   0  0  0  0  0  0  0  0  0  0  0  0
   -5.6667   -3.5198   -3.2779 C   0  0  0  0  0  0  0  0  0  0  0  0
   -6.3275   -3.2490   -4.4736 C   0  0  0  0  0  0  0  0  0  0  0  0
   -6.5447   -1.9306   -4.8686 C   0  0  0  0  0  0  0  0  0  0  0  0
   -6.1025   -0.8646   -4.0733 C   0  0  0  0  0  0  0  0  0  0  0  0
   -5.4241   -1.1331   -2.8605 C   0  0  0  0  0  0  0  0  0  0  0  0
   -3.7083    0.3070    2.3854 C   0  0  0  0  0  0  0  0  0  0  0  0
   -3.0104    0.1137    3.5800 C   0  0  0  0  0  0  0  0  0  0  0  0
   -1.5948    0.2422    3.6100 C   0  0  0  0  0  0  0  0  0  0  0  0
   -0.9664   -0.0620    4.8448 C   0  0  0  0  0  0  0  0  0  0  0  0
   -1.6870   -0.4054    5.9921 C   0  0  0  0  0  0  0  0  0  0  0  0
   -3.0696   -0.4764    5.9426 C   0  0  0  0  0  0  0  0  0  0  0  0
   -3.7256   -0.2248    4.7413 C   0  0  0  0  0  0  0  0  0  0  0  0
   -1.3816   -1.0412   -1.9510 H   0  0  0  0  0  0  0  0  0  0  0  0
    3.4381    1.9607   -0.4796 H   0  0  0  0  0  0  0  0  0  0  0  0
    4.5698    2.7637   -2.4658 H   0  0  0  0  0  0  0  0  0  0  0  0
    6.1195    2.3885   -4.3637 H   0  0  0  0  0  0  0  0  0  0  0  0
    7.6304    0.8980   -5.6149 H   0  0  0  0  0  0  0  0  0  0  0  0
    8.0088   -1.4168   -4.8639 H   0  0  0  0  0  0  0  0  0  0  0  0
    7.5447   -3.2501   -3.2610 H   0  0  0  0  0  0  0  0  0  0  0  0
    6.4025   -4.0857   -1.2689 H   0  0  0  0  0  0  0  0  0  0  0  0
    4.8680   -3.7348    0.6276 H   0  0  0  0  0  0  0  0  0  0  0  0
    3.3963   -2.2779    1.9213 H   0  0  0  0  0  0  0  0  0  0  0  0
    4.4730    1.2301    2.4677 H   0  0  0  0  0  0  0  0  0  0  0  0
   -0.6025    2.7621    4.0966 H   0  0  0  0  0  0  0  0  0  0  0  0
    0.5447    4.3111    5.5814 H   0  0  0  0  0  0  0  0  0  0  0  0
    3.0242    4.3952    5.6408 H   0  0  0  0  0  0  0  0  0  0  0  0
    4.3357    2.9247    4.1718 H   0  0  0  0  0  0  0  0  0  0  0  0
   -3.6860    2.9254    0.0921 H   0  0  0  0  0  0  0  0  0  0  0  0
   -4.8957    3.3601   -1.9851 H   0  0  0  0  0  0  0  0  0  0  0  0
   -6.0521    2.5362   -3.9988 H   0  0  0  0  0  0  0  0  0  0  0  0
   -6.8411    0.6886   -5.3884 H   0  0  0  0  0  0  0  0  0  0  0  0
   -3.5373   -1.9345    0.4373 H   0  0  0  0  0  0  0  0  0  0  0  0
   -4.3457   -3.7504   -0.9466 H   0  0  0  0  0  0  0  0  0  0  0  0
   -5.5168   -4.5575   -2.9867 H   0  0  0  0  0  0  0  0  0  0  0  0
   -6.6771   -4.0670   -5.0978 H   0  0  0  0  0  0  0  0  0  0  0  0
   -7.0643   -1.7411   -5.8050 H   0  0  0  0  0  0  0  0  0  0  0  0
   -4.7941    0.2158    2.3682 H   0  0  0  0  0  0  0  0  0  0  0  0
    0.1190   -0.0491    4.9301 H   0  0  0  0  0  0  0  0  0  0  0  0
   -1.1600   -0.6212    6.9179 H   0  0  0  0  0  0  0  0  0  0  0  0
   -3.6368   -0.7437    6.8301 H   0  0  0  0  0  0  0  0  0  0  0  0
   -4.8107   -0.3101    4.7151 H   0  0  0  0  0  0  0  0  0  0  0  0
  1  2  2  0  0  0  0
  2 33  1  0  0  0  0
  2  4  1  0  0  0  0
  3  2  1  0  0  0  0
  4  5  1  0  0  0  0
  5  6  2  0  0  0  0
  5 30  1  0  0  0  0
  6 23  1  0  0  0  0
  7 22  1  0  0  0  0
  7  6  1  0  0  0  0
  8  7  2  0  0  0  0
  9  8  1  0  0  0  0
  9 59  1  0  0  0  0
 10  9  2  0  0  0  0
 11 18  1  0  0  0  0
 11 10  1  0  0  0  0
 12 11  2  0  0  0  0
 13 14  2  0  0  0  0
 13 12  1  0  0  0  0
 14 15  1  0  0  0  0
 15 16  2  0  0  0  0
 15 18  1  0  0  0  0
 16 17  1  0  0  0  0
 17 65  1  0  0  0  0
 17 20  2  0  0  0  0
 18 19  2  0  0  0  0
 19 20  1  0  0  0  0
 19  8  1  0  0  0  0
 20 21  1  0  0  0  0
 21 66  1  0  0  0  0
 21 22  2  0  0  0  0
 22 67  1  0  0  0  0
 23 68  1  0  0  0  0
 23 24  2  0  0  0  0
 24 29  1  0  0  0  0
 25 24  1  0  0  0  0
 25 26  1  0  0  0  0
 26 27  2  0  0  0  0
 27 28  1  0  0  0  0
 27 70  1  0  0  0  0
 28 71  1  0  0  0  0
 29 72  1  0  0  0  0
 29 28  2  0  0  0  0
 30 31  1  0  0  0  0
 30 25  2  0  0  0  0
 31 53  2  0  0  0  0
 32 31  1  0  0  0  0
 33 32  1  0  0  0  0
 34 32  2  0  0  0  0
 34 51  1  0  0  0  0
 35 34  1  0  0  0  0
 36 35  1  0  0  0  0
 36 73  1  0  0  0  0
 37 36  2  0  0  0  0
 38 41  1  0  0  0  0
 38 37  1  0  0  0  0
 39 38  2  0  0  0  0
 40 49  2  0  0  0  0
 40 39  1  0  0  0  0
 41 42  1  0  0  0  0
 42 43  1  0  0  0  0
 42 35  2  0  0  0  0
 43 77  1  0  0  0  0
 44 78  1  0  0  0  0
 44 43  2  0  0  0  0
 45 44  1  0  0  0  0
 46 79  1  0  0  0  0
 46 45  2  0  0  0  0
 47 46  1  0  0  0  0
 48 47  2  0  0  0  0
 48 49  1  0  0  0  0
 49 50  1  0  0  0  0
 50 45  1  0  0  0  0
 50 41  2  0  0  0  0
 51 52  2  0  0  0  0
 52 53  1  0  0  0  0
 52 57  1  0  0  0  0
 53 54  1  0  0  0  0
 54 83  1  0  0  0  0
 54 55  2  0  0  0  0
 55 84  1  0  0  0  0
 56 55  1  0  0  0  0
 56 85  1  0  0  0  0
 57 56  2  0  0  0  0
 58  3  1  0  0  0  0
 60 10  1  0  0  0  0
 61 12  1  0  0  0  0
 62 13  1  0  0  0  0
 63 14  1  0  0  0  0
 64 16  1  0  0  0  0
 69 26  1  0  0  0  0
 74 37  1  0  0  0  0
 75 39  1  0  0  0  0
 76 40  1  0  0  0  0
 80 47  1  0  0  0  0
 81 48  1  0  0  0  0
 82 51  1  0  0  0  0
 86 57  1  0  0  0  0
M  END
$$$$
