O=P1(O)OC2=[C@]([C@]3=C(Cl)C=C(Cl)C=C3Cl)C=C4C(CCCC4)=[C@]2[C@]5=C(O1)C(C6=C(Cl)C=C(Cl)C=C6Cl)=CC7=C5CCCC7
 OpenBabel09032010373D

 66 72  0  0  0  0  0  0  0  0999 V2000
    0.4615   -3.7568   -0.6834 O   0  0  0  0  0  0  0  0  0  0  0  0
   -0.0600   -2.6357    0.1603 P   0  0  0  0  0  0  0  0  0  0  0  0
   -0.7920   -3.2365    1.4600 O   0  0  0  0  0  0  0  0  0  0  0  0
    1.0623   -1.6688    0.7942 O   0  0  0  0  0  0  0  0  0  0  0  0
    1.5424   -0.6582   -0.0069 C   0  0  0  0  0  0  0  0  0  0  0  0
    2.8821   -0.7390   -0.4238 C   0  0  0  0  0  0  0  0  0  0  0  0
    3.7541   -1.8558   -0.0130 C   0  0  0  0  0  0  0  0  0  0  0  0
    4.3361   -1.8978    1.2718 C   0  0  0  0  0  0  0  0  0  0  0  0
    4.1160   -0.6146    2.4169 Cl  0  0  0  0  0  0  0  0  0  0  0  0
    5.1309   -2.9750    1.6759 C   0  0  0  0  0  0  0  0  0  0  0  0
    5.3612   -4.0283    0.7993 C   0  0  0  0  0  0  0  0  0  0  0  0
    6.3354   -5.3551    1.2979 Cl  0  0  0  0  0  0  0  0  0  0  0  0
    4.8148   -4.0148   -0.4782 C   0  0  0  0  0  0  0  0  0  0  0  0
    4.0207   -2.9365   -0.8811 C   0  0  0  0  0  0  0  0  0  0  0  0
    3.3874   -2.9905   -2.4938 Cl  0  0  0  0  0  0  0  0  0  0  0  0
    3.3688    0.2674   -1.2613 C   0  0  0  0  0  0  0  0  0  0  0  0
    2.5335    1.2940   -1.7235 C   0  0  0  0  0  0  0  0  0  0  0  0
    1.1844    1.3477   -1.3001 C   0  0  0  0  0  0  0  0  0  0  0  0
    0.2407    2.3515   -1.9518 C   0  0  0  0  0  0  0  0  0  0  0  0
    0.7664    2.9328   -3.2635 C   0  0  0  0  0  0  0  0  0  0  0  0
    2.1899    3.4277   -3.0698 C   0  0  0  0  0  0  0  0  0  0  0  0
    3.1055    2.2550   -2.7412 C   0  0  0  0  0  0  0  0  0  0  0  0
    0.6849    0.4116   -0.3412 C   0  0  0  0  0  0  0  0  0  0  0  0
   -0.6184    0.5048    0.2539 C   0  0  0  0  0  0  0  0  0  0  0  0
   -1.5600   -0.5374    0.0906 C   0  0  0  0  0  0  0  0  0  0  0  0
   -1.1839   -1.7094   -0.5289 O   0  0  0  0  0  0  0  0  0  0  0  0
   -2.9058   -0.4294    0.4873 C   0  0  0  0  0  0  0  0  0  0  0  0
   -3.8822   -1.5047    0.2215 C   0  0  0  0  0  0  0  0  0  0  0  0
   -4.2982   -2.3920    1.2372 C   0  0  0  0  0  0  0  0  0  0  0  0
   -3.7320   -2.2493    2.8696 Cl  0  0  0  0  0  0  0  0  0  0  0  0
   -5.1975   -3.4304    0.9731 C   0  0  0  0  0  0  0  0  0  0  0  0
   -5.7012   -3.5970   -0.3111 C   0  0  0  0  0  0  0  0  0  0  0  0
   -6.8057   -4.8749   -0.6356 Cl  0  0  0  0  0  0  0  0  0  0  0  0
   -5.3254   -2.7341   -1.3326 C   0  0  0  0  0  0  0  0  0  0  0  0
   -4.4267   -1.6958   -1.0673 C   0  0  0  0  0  0  0  0  0  0  0  0
   -4.0353   -0.6451   -2.3905 Cl  0  0  0  0  0  0  0  0  0  0  0  0
   -3.3048    0.7360    1.1468 C   0  0  0  0  0  0  0  0  0  0  0  0
   -2.3850    1.7471    1.4553 C   0  0  0  0  0  0  0  0  0  0  0  0
   -1.0370    1.6195    1.0459 C   0  0  0  0  0  0  0  0  0  0  0  0
   -0.0119    2.6329    1.5417 C   0  0  0  0  0  0  0  0  0  0  0  0
   -0.4855    3.4574    2.7377 C   0  0  0  0  0  0  0  0  0  0  0  0
   -1.8623    4.0320    2.4499 C   0  0  0  0  0  0  0  0  0  0  0  0
   -2.8735    2.9022    2.2998 C   0  0  0  0  0  0  0  0  0  0  0  0
   -0.4578   -4.1330    1.6429 H   0  0  0  0  0  0  0  0  0  0  0  0
    5.5662   -2.9892    2.6720 H   0  0  0  0  0  0  0  0  0  0  0  0
    5.0001   -4.8412   -1.1602 H   0  0  0  0  0  0  0  0  0  0  0  0
    4.4018    0.2263   -1.6054 H   0  0  0  0  0  0  0  0  0  0  0  0
    0.0574    3.1838   -1.2702 H   0  0  0  0  0  0  0  0  0  0  0  0
   -0.7226    1.8720   -2.1628 H   0  0  0  0  0  0  0  0  0  0  0  0
    0.7378    2.1721   -4.0538 H   0  0  0  0  0  0  0  0  0  0  0  0
    0.1197    3.7568   -3.5852 H   0  0  0  0  0  0  0  0  0  0  0  0
    2.5459    3.9326   -3.9747 H   0  0  0  0  0  0  0  0  0  0  0  0
    2.2185    4.1654   -2.2578 H   0  0  0  0  0  0  0  0  0  0  0  0
    3.3022    1.6909   -3.6622 H   0  0  0  0  0  0  0  0  0  0  0  0
    4.0654    2.6449   -2.3816 H   0  0  0  0  0  0  0  0  0  0  0  0
   -5.5005   -4.1063    1.7689 H   0  0  0  0  0  0  0  0  0  0  0  0
   -5.7280   -2.8656   -2.3340 H   0  0  0  0  0  0  0  0  0  0  0  0
   -4.3395    0.8412    1.4711 H   0  0  0  0  0  0  0  0  0  0  0  0
    0.9079    2.1148    1.8384 H   0  0  0  0  0  0  0  0  0  0  0  0
    0.2404    3.3278    0.7390 H   0  0  0  0  0  0  0  0  0  0  0  0
   -0.5205    2.8326    3.6391 H   0  0  0  0  0  0  0  0  0  0  0  0
    0.2286    4.2654    2.9327 H   0  0  0  0  0  0  0  0  0  0  0  0
   -1.8293    4.6309    1.5310 H   0  0  0  0  0  0  0  0  0  0  0  0
   -2.1740    4.7022    3.2587 H   0  0  0  0  0  0  0  0  0  0  0  0
   -3.1169    2.5103    3.2959 H   0  0  0  0  0  0  0  0  0  0  0  0
   -3.7972    3.3086    1.8704 H   0  0  0  0  0  0  0  0  0  0  0  0
  1  2  2  0  0  0  0
  2  4  1  0  0  0  0
  2  3  1  0  0  0  0
  3 44  1  0  0  0  0
  5  4  1  0  0  0  0
  6  7  1  0  0  0  0
  6  5  1  0  0  0  0
  7  8  2  0  0  0  0
  8 10  1  0  0  0  0
  8  9  1  0  0  0  0
 10 45  1  0  0  0  0
 11 12  1  0  0  0  0
 11 10  2  0  0  0  0
 13 11  1  0  0  0  0
 14 13  2  0  0  0  0
 14  7  1  0  0  0  0
 15 14  1  0  0  0  0
 16  6  2  0  0  0  0
 17 18  2  0  0  0  0
 17 16  1  0  0  0  0
 18 23  1  0  0  0  0
 19 18  1  0  0  0  0
 19 48  1  0  0  0  0
 20 21  1  0  0  0  0
 20 19  1  0  0  0  0
 21 22  1  0  0  0  0
 21 53  1  0  0  0  0
 22 55  1  0  0  0  0
 22 17  1  0  0  0  0
 23  5  2  0  0  0  0
 23 24  1  0  0  0  0
 24 39  1  0  0  0  0
 25 24  2  0  0  0  0
 25 27  1  0  0  0  0
 26 25  1  0  0  0  0
 26  2  1  0  0  0  0
 27 37  2  0  0  0  0
 28 27  1  0  0  0  0
 28 29  2  0  0  0  0
 29 30  1  0  0  0  0
 31 29  1  0  0  0  0
 31 56  1  0  0  0  0
 32 31  2  0  0  0  0
 33 32  1  0  0  0  0
 34 35  2  0  0  0  0
 34 32  1  0  0  0  0
 35 28  1  0  0  0  0
 36 35  1  0  0  0  0
 37 38  1  0  0  0  0
 37 58  1  0  0  0  0
 38 43  1  0  0  0  0
 39 38  2  0  0  0  0
 39 40  1  0  0  0  0
 40 59  1  0  0  0  0
 40 41  1  0  0  0  0
 41 62  1  0  0  0  0
 41 61  1  0  0  0  0
 42 41  1  0  0  0  0
 42 64  1  0  0  0  0
 43 42  1  0  0  0  0
 43 65  1  0  0  0  0
 46 13  1  0  0  0  0
 47 16  1  0  0  0  0
 49 19  1  0  0  0  0
 50 20  1  0  0  0  0
 51 20  1  0  0  0  0
 52 21  1  0  0  0  0
 54 22  1  0  0  0  0
 57 34  1  0  0  0  0
 60 40  1  0  0  0  0
 63 42  1  0  0  0  0
 66 43  1  0  0  0  0
M  END
$$$$
