O=P1(O)OC2=C(C3=C(OCC)C=CC(C)=C3)C=C4C(C=CC=C4)=C2C5=C(O1)C(C6=CC(C)=CC=C6OCC)=CC7=C5C=CC=C7
 OpenBabel09032010383D

 78 84  0  0  0  0  0  0  0  0999 V2000
   -1.1028   -2.1064   -2.2240 O   0  0  0  0  0  0  0  0  0  0  0  0
   -0.3014   -1.0010   -1.6084 P   0  0  0  0  0  0  0  0  0  0  0  0
    0.4494   -0.0855   -2.6960 O   0  0  0  0  0  0  0  0  0  0  0  0
    0.9023   -1.5145   -0.6657 O   0  0  0  0  0  0  0  0  0  0  0  0
    1.4879   -0.6616    0.2451 C   0  0  0  0  0  0  0  0  0  0  0  0
    2.8582   -0.4041    0.0644 C   0  0  0  0  0  0  0  0  0  0  0  0
    3.6256   -0.9657   -1.0597 C   0  0  0  0  0  0  0  0  0  0  0  0
    3.7440   -0.2841   -2.2891 C   0  0  0  0  0  0  0  0  0  0  0  0
    3.0618    0.9072   -2.3853 O   0  0  0  0  0  0  0  0  0  0  0  0
    3.3767    1.7455   -3.4995 C   0  0  0  0  0  0  0  0  0  0  0  0
    2.6634    3.0703   -3.2973 C   0  0  0  0  0  0  0  0  0  0  0  0
    4.4889   -0.8528   -3.3265 C   0  0  0  0  0  0  0  0  0  0  0  0
    5.1289   -2.0829   -3.1474 C   0  0  0  0  0  0  0  0  0  0  0  0
    5.0390   -2.7619   -1.9304 C   0  0  0  0  0  0  0  0  0  0  0  0
    5.6905   -4.1009   -1.7522 C   0  0  0  0  0  0  0  0  0  0  0  0
    4.2754   -2.2032   -0.8992 C   0  0  0  0  0  0  0  0  0  0  0  0
    3.5056    0.4190    0.9871 C   0  0  0  0  0  0  0  0  0  0  0  0
    2.8137    1.0078    2.0464 C   0  0  0  0  0  0  0  0  0  0  0  0
    1.4292    0.7470    2.2256 C   0  0  0  0  0  0  0  0  0  0  0  0
    0.7907    1.4707    3.2664 C   0  0  0  0  0  0  0  0  0  0  0  0
    1.4818    2.3375    4.1177 C   0  0  0  0  0  0  0  0  0  0  0  0
    2.8426    2.5303    3.9475 C   0  0  0  0  0  0  0  0  0  0  0  0
    3.5018    1.8745    2.9125 C   0  0  0  0  0  0  0  0  0  0  0  0
    0.7394   -0.1637    1.3429 C   0  0  0  0  0  0  0  0  0  0  0  0
   -0.6398   -0.5548    1.5382 C   0  0  0  0  0  0  0  0  0  0  0  0
   -1.5759   -0.3599    0.4965 C   0  0  0  0  0  0  0  0  0  0  0  0
   -1.1220    0.0734   -0.7293 O   0  0  0  0  0  0  0  0  0  0  0  0
   -2.9620   -0.5207    0.6556 C   0  0  0  0  0  0  0  0  0  0  0  0
   -3.9221   -0.1917   -0.4089 C   0  0  0  0  0  0  0  0  0  0  0  0
   -4.1854   -1.1091   -1.4391 C   0  0  0  0  0  0  0  0  0  0  0  0
   -5.1004   -0.8156   -2.4621 C   0  0  0  0  0  0  0  0  0  0  0  0
   -5.3743   -1.8250   -3.5379 C   0  0  0  0  0  0  0  0  0  0  0  0
   -5.7924    0.4001   -2.4332 C   0  0  0  0  0  0  0  0  0  0  0  0
   -5.5492    1.3237   -1.4177 C   0  0  0  0  0  0  0  0  0  0  0  0
   -4.6084    1.0346   -0.4281 C   0  0  0  0  0  0  0  0  0  0  0  0
   -4.4069    1.9479    0.5779 O   0  0  0  0  0  0  0  0  0  0  0  0
   -3.5091    2.9754    0.1419 C   0  0  0  0  0  0  0  0  0  0  0  0
   -2.9257    3.6396    1.3754 C   0  0  0  0  0  0  0  0  0  0  0  0
   -3.4314   -0.9761    1.8890 C   0  0  0  0  0  0  0  0  0  0  0  0
   -2.5561   -1.2901    2.9319 C   0  0  0  0  0  0  0  0  0  0  0  0
   -1.1584   -1.1011    2.7680 C   0  0  0  0  0  0  0  0  0  0  0  0
   -0.3372   -1.5170    3.8466 C   0  0  0  0  0  0  0  0  0  0  0  0
   -0.8625   -2.0306    5.0356 C   0  0  0  0  0  0  0  0  0  0  0  0
   -2.2340   -2.1622    5.1836 C   0  0  0  0  0  0  0  0  0  0  0  0
   -3.0744   -1.7988    4.1351 C   0  0  0  0  0  0  0  0  0  0  0  0
    1.1706    0.4447   -2.3029 H   0  0  0  0  0  0  0  0  0  0  0  0
    4.4568    1.9245   -3.5547 H   0  0  0  0  0  0  0  0  0  0  0  0
    3.0197    1.2855   -4.4276 H   0  0  0  0  0  0  0  0  0  0  0  0
    1.5814    2.9183   -3.2228 H   0  0  0  0  0  0  0  0  0  0  0  0
    2.9837    3.5412   -2.3620 H   0  0  0  0  0  0  0  0  0  0  0  0
    2.8679    3.7539   -4.1258 H   0  0  0  0  0  0  0  0  0  0  0  0
    4.5788   -0.3751   -4.2964 H   0  0  0  0  0  0  0  0  0  0  0  0
    5.6932   -2.5118   -3.9730 H   0  0  0  0  0  0  0  0  0  0  0  0
    6.5917   -4.1824   -2.3691 H   0  0  0  0  0  0  0  0  0  0  0  0
    4.9947   -4.8964   -2.0360 H   0  0  0  0  0  0  0  0  0  0  0  0
    5.9956   -4.2509   -0.7112 H   0  0  0  0  0  0  0  0  0  0  0  0
    4.1770   -2.7373    0.0451 H   0  0  0  0  0  0  0  0  0  0  0  0
    4.5673    0.6241    0.8509 H   0  0  0  0  0  0  0  0  0  0  0  0
   -0.2824    1.3789    3.4263 H   0  0  0  0  0  0  0  0  0  0  0  0
    0.9475    2.8607    4.9064 H   0  0  0  0  0  0  0  0  0  0  0  0
    3.3882    3.2015    4.6049 H   0  0  0  0  0  0  0  0  0  0  0  0
    4.5663    2.0586    2.7780 H   0  0  0  0  0  0  0  0  0  0  0  0
   -3.6631   -2.0657   -1.4495 H   0  0  0  0  0  0  0  0  0  0  0  0
   -6.1566   -2.5169   -3.2113 H   0  0  0  0  0  0  0  0  0  0  0  0
   -4.4705   -2.3962   -3.7751 H   0  0  0  0  0  0  0  0  0  0  0  0
   -5.6995   -1.3345   -4.4614 H   0  0  0  0  0  0  0  0  0  0  0  0
   -6.5267    0.6327   -3.2007 H   0  0  0  0  0  0  0  0  0  0  0  0
   -6.0951    2.2618   -1.3929 H   0  0  0  0  0  0  0  0  0  0  0  0
   -4.0636    3.7142   -0.4480 H   0  0  0  0  0  0  0  0  0  0  0  0
   -2.6920    2.5709   -0.4686 H   0  0  0  0  0  0  0  0  0  0  0  0
   -2.3826    2.9093    1.9846 H   0  0  0  0  0  0  0  0  0  0  0  0
   -2.2411    4.4457    1.0974 H   0  0  0  0  0  0  0  0  0  0  0  0
   -3.7212    4.0519    2.0049 H   0  0  0  0  0  0  0  0  0  0  0  0
   -4.5056   -1.0994    2.0244 H   0  0  0  0  0  0  0  0  0  0  0  0
    0.7469   -1.4565    3.7689 H   0  0  0  0  0  0  0  0  0  0  0  0
   -0.1936   -2.3301    5.8379 H   0  0  0  0  0  0  0  0  0  0  0  0
   -2.6511   -2.5604    6.1044 H   0  0  0  0  0  0  0  0  0  0  0  0
   -4.1480   -1.9282    4.2607 H   0  0  0  0  0  0  0  0  0  0  0  0
  1  2  2  0  0  0  0
  2 27  1  0  0  0  0
  2  4  1  0  0  0  0
  3 46  1  0  0  0  0
  3  2  1  0  0  0  0
  4  5  1  0  0  0  0
  5 24  1  0  0  0  0
  6  5  2  0  0  0  0
  6 17  1  0  0  0  0
  7 16  1  0  0  0  0
  7  6  1  0  0  0  0
  8  7  2  0  0  0  0
  9  8  1  0  0  0  0
 10 11  1  0  0  0  0
 10  9  1  0  0  0  0
 11 49  1  0  0  0  0
 11 50  1  0  0  0  0
 12 13  2  0  0  0  0
 12  8  1  0  0  0  0
 13 14  1  0  0  0  0
 14 15  1  0  0  0  0
 14 16  2  0  0  0  0
 15 56  1  0  0  0  0
 16 57  1  0  0  0  0
 17 18  2  0  0  0  0
 18 19  1  0  0  0  0
 18 23  1  0  0  0  0
 19 20  1  0  0  0  0
 20 59  1  0  0  0  0
 20 21  2  0  0  0  0
 21 60  1  0  0  0  0
 22 21  1  0  0  0  0
 22 61  1  0  0  0  0
 23 22  2  0  0  0  0
 24 25  1  0  0  0  0
 24 19  2  0  0  0  0
 25 41  2  0  0  0  0
 26 28  2  0  0  0  0
 26 25  1  0  0  0  0
 27 26  1  0  0  0  0
 28 39  1  0  0  0  0
 29 28  1  0  0  0  0
 30 29  2  0  0  0  0
 31 33  2  0  0  0  0
 31 30  1  0  0  0  0
 32 64  1  0  0  0  0
 32 31  1  0  0  0  0
 33 34  1  0  0  0  0
 34 68  1  0  0  0  0
 34 35  2  0  0  0  0
 35 29  1  0  0  0  0
 35 36  1  0  0  0  0
 37 36  1  0  0  0  0
 37 38  1  0  0  0  0
 38 71  1  0  0  0  0
 38 73  1  0  0  0  0
 39 74  1  0  0  0  0
 39 40  2  0  0  0  0
 40 45  1  0  0  0  0
 41 40  1  0  0  0  0
 41 42  1  0  0  0  0
 42 43  2  0  0  0  0
 43 44  1  0  0  0  0
 43 76  1  0  0  0  0
 44 77  1  0  0  0  0
 45 78  1  0  0  0  0
 45 44  2  0  0  0  0
 47 10  1  0  0  0  0
 48 10  1  0  0  0  0
 51 11  1  0  0  0  0
 52 12  1  0  0  0  0
 53 13  1  0  0  0  0
 54 15  1  0  0  0  0
 55 15  1  0  0  0  0
 58 17  1  0  0  0  0
 62 23  1  0  0  0  0
 63 30  1  0  0  0  0
 65 32  1  0  0  0  0
 66 32  1  0  0  0  0
 67 33  1  0  0  0  0
 69 37  1  0  0  0  0
 70 37  1  0  0  0  0
 72 38  1  0  0  0  0
 75 42  1  0  0  0  0
M  END
$$$$
