O=P1(O)OC2=C(C3=C(C=CC=C4)C4=C(C5=CC(C=CC=C6)=C6C=C5)C7=C3C=CC=C7)C=C8C(C=CC=C8)=[C@]2[C@]9=C(O1)C(C%10=C(C=CC=C%11)C%11=C(C%12=CC=C(C=CC=C%13)C%13=C%12)C%14=C%10C=CC=C%14)=CC%15=C9C=CC=C%15
 OpenBabel09032010373D

114128  0  0  0  0  0  0  0  0999 V2000
    0.7836    1.2566   -0.0338 O   0  0  0  0  0  0  0  0  0  0  0  0
    0.2158   -0.1247    0.0350 P   0  0  0  0  0  0  0  0  0  0  0  0
   -0.4321   -0.5582   -1.3709 O   0  0  0  0  0  0  0  0  0  0  0  0
   -0.9934   -0.3095    1.0825 O   0  0  0  0  0  0  0  0  0  0  0  0
   -1.4870   -1.5692    1.3357 C   0  0  0  0  0  0  0  0  0  0  0  0
   -2.8349   -1.7896    0.9907 C   0  0  0  0  0  0  0  0  0  0  0  0
   -3.6807   -0.7255    0.3862 C   0  0  0  0  0  0  0  0  0  0  0  0
   -3.8829   -0.6966   -1.0285 C   0  0  0  0  0  0  0  0  0  0  0  0
   -3.3107   -1.6593   -1.9029 C   0  0  0  0  0  0  0  0  0  0  0  0
   -3.4984   -1.6283   -3.2839 C   0  0  0  0  0  0  0  0  0  0  0  0
   -4.2716   -0.6291   -3.8402 C   0  0  0  0  0  0  0  0  0  0  0  0
   -4.8489    0.3300   -3.0100 C   0  0  0  0  0  0  0  0  0  0  0  0
   -4.6767    0.3268   -1.5996 C   0  0  0  0  0  0  0  0  0  0  0  0
   -5.2724    1.3128   -0.7545 C   0  0  0  0  0  0  0  0  0  0  0  0
   -6.1067    2.3817   -1.3533 C   0  0  0  0  0  0  0  0  0  0  0  0
   -7.4864    2.1912   -1.5375 C   0  0  0  0  0  0  0  0  0  0  0  0
   -8.2917    3.1916   -2.1063 C   0  0  0  0  0  0  0  0  0  0  0  0
   -9.6705    3.0027   -2.2921 C   0  0  0  0  0  0  0  0  0  0  0  0
  -10.4578    4.0058   -2.8593 C   0  0  0  0  0  0  0  0  0  0  0  0
   -9.8779    5.2098   -3.2480 C   0  0  0  0  0  0  0  0  0  0  0  0
   -8.5084    5.4130   -3.0697 C   0  0  0  0  0  0  0  0  0  0  0  0
   -7.7023    4.4140   -2.5003 C   0  0  0  0  0  0  0  0  0  0  0  0
   -6.3247    4.6038   -2.3141 C   0  0  0  0  0  0  0  0  0  0  0  0
   -5.5363    3.5996   -1.7473 C   0  0  0  0  0  0  0  0  0  0  0  0
   -5.0805    1.2777    0.6606 C   0  0  0  0  0  0  0  0  0  0  0  0
   -4.2856    0.2562    1.2326 C   0  0  0  0  0  0  0  0  0  0  0  0
   -4.1252    0.2512    2.6448 C   0  0  0  0  0  0  0  0  0  0  0  0
   -4.7089    1.2084    3.4730 C   0  0  0  0  0  0  0  0  0  0  0  0
   -5.4812    2.2067    2.9135 C   0  0  0  0  0  0  0  0  0  0  0  0
   -5.6628    2.2372    1.5318 C   0  0  0  0  0  0  0  0  0  0  0  0
   -3.3892   -3.0428    1.2578 C   0  0  0  0  0  0  0  0  0  0  0  0
   -2.6232   -4.0678    1.8150 C   0  0  0  0  0  0  0  0  0  0  0  0
   -1.2682   -3.8330    2.1740 C   0  0  0  0  0  0  0  0  0  0  0  0
   -0.5450   -4.9575    2.6475 C   0  0  0  0  0  0  0  0  0  0  0  0
   -1.1328   -6.2139    2.8200 C   0  0  0  0  0  0  0  0  0  0  0  0
   -2.4696   -6.3974    2.5062 C   0  0  0  0  0  0  0  0  0  0  0  0
   -3.2078   -5.3315    2.0011 C   0  0  0  0  0  0  0  0  0  0  0  0
   -0.6832   -2.5243    2.0054 C   0  0  0  0  0  0  0  0  0  0  0  0
    0.6295   -2.1592    2.5059 C   0  0  0  0  0  0  0  0  0  0  0  0
    1.5874   -1.5745    1.6425 C   0  0  0  0  0  0  0  0  0  0  0  0
    1.2487   -1.3203    0.3342 O   0  0  0  0  0  0  0  0  0  0  0  0
    2.9209   -1.3211    2.0117 C   0  0  0  0  0  0  0  0  0  0  0  0
    3.9092   -0.7548    1.0571 C   0  0  0  0  0  0  0  0  0  0  0  0
    4.5745   -1.6199    0.1334 C   0  0  0  0  0  0  0  0  0  0  0  0
    4.3455   -3.0222    0.0986 C   0  0  0  0  0  0  0  0  0  0  0  0
    4.9837   -3.8669   -0.8083 C   0  0  0  0  0  0  0  0  0  0  0  0
    5.8790   -3.3343   -1.7146 C   0  0  0  0  0  0  0  0  0  0  0  0
    6.1300   -1.9631   -1.7029 C   0  0  0  0  0  0  0  0  0  0  0  0
    5.4982   -1.0760   -0.7904 C   0  0  0  0  0  0  0  0  0  0  0  0
    5.7626    0.3280   -0.7793 C   0  0  0  0  0  0  0  0  0  0  0  0
    6.7145    0.9013   -1.7600 C   0  0  0  0  0  0  0  0  0  0  0  0
    8.0803    0.9946   -1.4635 C   0  0  0  0  0  0  0  0  0  0  0  0
    8.9720    1.5415   -2.3891 C   0  0  0  0  0  0  0  0  0  0  0  0
    8.5196    2.0084   -3.6326 C   0  0  0  0  0  0  0  0  0  0  0  0
    9.4034    2.5624   -4.5729 C   0  0  0  0  0  0  0  0  0  0  0  0
    8.9373    3.0243   -5.8051 C   0  0  0  0  0  0  0  0  0  0  0  0
    7.5826    2.9379   -6.1124 C   0  0  0  0  0  0  0  0  0  0  0  0
    6.6914    2.3890   -5.1890 C   0  0  0  0  0  0  0  0  0  0  0  0
    7.1446    1.9203   -3.9455 C   0  0  0  0  0  0  0  0  0  0  0  0
    6.2598    1.3670   -3.0054 C   0  0  0  0  0  0  0  0  0  0  0  0
    5.1139    1.1897    0.1578 C   0  0  0  0  0  0  0  0  0  0  0  0
    4.1815    0.6489    1.0747 C   0  0  0  0  0  0  0  0  0  0  0  0
    3.5441    1.5415    1.9787 C   0  0  0  0  0  0  0  0  0  0  0  0
    3.8107    2.9097    1.9994 C   0  0  0  0  0  0  0  0  0  0  0  0
    4.7272    3.4351    1.1106 C   0  0  0  0  0  0  0  0  0  0  0  0
    5.3639    2.5878    0.2056 C   0  0  0  0  0  0  0  0  0  0  0  0
    3.3132   -1.6243    3.3169 C   0  0  0  0  0  0  0  0  0  0  0  0
    2.4008   -2.1197    4.2504 C   0  0  0  0  0  0  0  0  0  0  0  0
    1.0541   -2.3685    3.8702 C   0  0  0  0  0  0  0  0  0  0  0  0
    0.1782   -2.7724    4.9105 C   0  0  0  0  0  0  0  0  0  0  0  0
    0.6117   -2.9858    6.2222 C   0  0  0  0  0  0  0  0  0  0  0  0
    1.9428   -2.7845    6.5486 C   0  0  0  0  0  0  0  0  0  0  0  0
    2.8295   -2.3471    5.5691 C   0  0  0  0  0  0  0  0  0  0  0  0
   -0.9044    0.1915   -1.7770 H   0  0  0  0  0  0  0  0  0  0  0  0
   -2.6822   -2.4592   -1.5135 H   0  0  0  0  0  0  0  0  0  0  0  0
   -3.0376   -2.3840   -3.9141 H   0  0  0  0  0  0  0  0  0  0  0  0
   -4.4316   -0.5895   -4.9141 H   0  0  0  0  0  0  0  0  0  0  0  0
   -5.4524    1.0979   -3.4924 H   0  0  0  0  0  0  0  0  0  0  0  0
   -7.9331    1.2463   -1.2312 H   0  0  0  0  0  0  0  0  0  0  0  0
  -10.1419    2.0686   -1.9947 H   0  0  0  0  0  0  0  0  0  0  0  0
  -11.5237    3.8447   -2.9968 H   0  0  0  0  0  0  0  0  0  0  0  0
  -10.4901    5.9915   -3.6900 H   0  0  0  0  0  0  0  0  0  0  0  0
   -8.0722    6.3598   -3.3796 H   0  0  0  0  0  0  0  0  0  0  0  0
   -5.8534    5.5387   -2.6094 H   0  0  0  0  0  0  0  0  0  0  0  0
   -4.4704    3.7720   -1.6119 H   0  0  0  0  0  0  0  0  0  0  0  0
   -3.5253   -0.5152    3.1318 H   0  0  0  0  0  0  0  0  0  0  0  0
   -4.5540    1.1675    4.5476 H   0  0  0  0  0  0  0  0  0  0  0  0
   -5.9449    2.9623    3.5414 H   0  0  0  0  0  0  0  0  0  0  0  0
   -6.2815    3.0411    1.1356 H   0  0  0  0  0  0  0  0  0  0  0  0
   -4.4325   -3.2209    0.9979 H   0  0  0  0  0  0  0  0  0  0  0  0
    0.5149   -4.8726    2.8808 H   0  0  0  0  0  0  0  0  0  0  0  0
   -0.5378   -7.0438    3.1926 H   0  0  0  0  0  0  0  0  0  0  0  0
   -2.9356   -7.3700    2.6351 H   0  0  0  0  0  0  0  0  0  0  0  0
   -4.2503   -5.5026    1.7380 H   0  0  0  0  0  0  0  0  0  0  0  0
    3.6450   -3.4857    0.7904 H   0  0  0  0  0  0  0  0  0  0  0  0
    4.7729   -4.9325   -0.8029 H   0  0  0  0  0  0  0  0  0  0  0  0
    6.3846   -3.9749   -2.4317 H   0  0  0  0  0  0  0  0  0  0  0  0
    6.8429   -1.5872   -2.4352 H   0  0  0  0  0  0  0  0  0  0  0  0
    8.4561    0.6415   -0.5053 H   0  0  0  0  0  0  0  0  0  0  0  0
   10.0268    1.6008   -2.1296 H   0  0  0  0  0  0  0  0  0  0  0  0
   10.4652    2.6386   -4.3501 H   0  0  0  0  0  0  0  0  0  0  0  0
    9.6324    3.4512   -6.5234 H   0  0  0  0  0  0  0  0  0  0  0  0
    7.2171    3.2971   -7.0707 H   0  0  0  0  0  0  0  0  0  0  0  0
    5.6365    2.3302   -5.4477 H   0  0  0  0  0  0  0  0  0  0  0  0
    5.1980    1.2972   -3.2377 H   0  0  0  0  0  0  0  0  0  0  0  0
    2.8015    1.1793    2.6867 H   0  0  0  0  0  0  0  0  0  0  0  0
    3.2924    3.5560    2.7018 H   0  0  0  0  0  0  0  0  0  0  0  0
    4.9437    4.4993    1.1075 H   0  0  0  0  0  0  0  0  0  0  0  0
    6.0717    3.0472   -0.4824 H   0  0  0  0  0  0  0  0  0  0  0  0
    4.3461   -1.4368    3.6099 H   0  0  0  0  0  0  0  0  0  0  0  0
   -0.8823   -2.9174    4.7131 H   0  0  0  0  0  0  0  0  0  0  0  0
   -0.0975   -3.3030    6.9825 H   0  0  0  0  0  0  0  0  0  0  0  0
    2.2902   -2.9479    7.5650 H   0  0  0  0  0  0  0  0  0  0  0  0
    3.8661   -2.1687    5.8510 H   0  0  0  0  0  0  0  0  0  0  0  0
  1  2  2  0  0  0  0
  2 41  1  0  0  0  0
  2  4  1  0  0  0  0
  3  2  1  0  0  0  0
  4  5  1  0  0  0  0
  5 38  2  0  0  0  0
  6 31  2  0  0  0  0
  6  5  1  0  0  0  0
  7  6  1  0  0  0  0
  7 26  2  0  0  0  0
  8  7  1  0  0  0  0
  9 75  1  0  0  0  0
  9  8  2  0  0  0  0
 10  9  1  0  0  0  0
 11 10  2  0  0  0  0
 11 12  1  0  0  0  0
 12 13  2  0  0  0  0
 13  8  1  0  0  0  0
 13 14  1  0  0  0  0
 14 25  2  0  0  0  0
 15 14  1  0  0  0  0
 16 15  1  0  0  0  0
 16 79  1  0  0  0  0
 17 16  2  0  0  0  0
 18 17  1  0  0  0  0
 18 80  1  0  0  0  0
 19 18  2  0  0  0  0
 20 21  2  0  0  0  0
 20 19  1  0  0  0  0
 21 22  1  0  0  0  0
 22 23  2  0  0  0  0
 22 17  1  0  0  0  0
 23 24  1  0  0  0  0
 24 85  1  0  0  0  0
 24 15  2  0  0  0  0
 25 26  1  0  0  0  0
 25 30  1  0  0  0  0
 26 27  1  0  0  0  0
 27 86  1  0  0  0  0
 27 28  2  0  0  0  0
 28 87  1  0  0  0  0
 29 28  1  0  0  0  0
 29 88  1  0  0  0  0
 30 29  2  0  0  0  0
 31 32  1  0  0  0  0
 32 37  2  0  0  0  0
 32 33  1  0  0  0  0
 33 34  2  0  0  0  0
 34 35  1  0  0  0  0
 34 91  1  0  0  0  0
 35 92  1  0  0  0  0
 36 93  1  0  0  0  0
 36 35  2  0  0  0  0
 37 36  1  0  0  0  0
 38 33  1  0  0  0  0
 38 39  1  0  0  0  0
 39 69  2  0  0  0  0
 40 42  2  0  0  0  0
 40 39  1  0  0  0  0
 41 40  1  0  0  0  0
 42 67  1  0  0  0  0
 43 62  1  0  0  0  0
 43 42  1  0  0  0  0
 44 43  2  0  0  0  0
 45 44  1  0  0  0  0
 45 95  1  0  0  0  0
 46 96  1  0  0  0  0
 46 45  2  0  0  0  0
 47 48  2  0  0  0  0
 47 46  1  0  0  0  0
 48 49  1  0  0  0  0
 49 50  2  0  0  0  0
 49 44  1  0  0  0  0
 50 61  1  0  0  0  0
 51 52  1  0  0  0  0
 51 50  1  0  0  0  0
 52 99  1  0  0  0  0
 53100  1  0  0  0  0
 53 52  2  0  0  0  0
 54 53  1  0  0  0  0
 55101  1  0  0  0  0
 55 54  2  0  0  0  0
 56 55  1  0  0  0  0
 57 56  2  0  0  0  0
 57 58  1  0  0  0  0
 58 59  2  0  0  0  0
 59 54  1  0  0  0  0
 59 60  1  0  0  0  0
 60 51  2  0  0  0  0
 61 66  2  0  0  0  0
 61 62  1  0  0  0  0
 62 63  2  0  0  0  0
 63 64  1  0  0  0  0
 63106  1  0  0  0  0
 64107  1  0  0  0  0
 65 64  2  0  0  0  0
 66 65  1  0  0  0  0
 67110  1  0  0  0  0
 67 68  2  0  0  0  0
 68 73  1  0  0  0  0
 69 68  1  0  0  0  0
 69 70  1  0  0  0  0
 70 71  2  0  0  0  0
 71 72  1  0  0  0  0
 71112  1  0  0  0  0
 72113  1  0  0  0  0
 73114  1  0  0  0  0
 73 72  2  0  0  0  0
 74  3  1  0  0  0  0
 76 10  1  0  0  0  0
 77 11  1  0  0  0  0
 78 12  1  0  0  0  0
 81 19  1  0  0  0  0
 82 20  1  0  0  0  0
 83 21  1  0  0  0  0
 84 23  1  0  0  0  0
 89 30  1  0  0  0  0
 90 31  1  0  0  0  0
 94 37  1  0  0  0  0
 97 47  1  0  0  0  0
 98 48  1  0  0  0  0
102 56  1  0  0  0  0
103 57  1  0  0  0  0
104 58  1  0  0  0  0
105 60  1  0  0  0  0
108 65  1  0  0  0  0
109 66  1  0  0  0  0
111 70  1  0  0  0  0
M  END
$$$$
