O=P1(O)OC2=[C@]([C@]3=C(Cl)C=C(Cl)C=C3Cl)C=C4C(CCCC4)=[C@]2[C@]5=C(O1)C(C6=C(Cl)C=C(Cl)C=C6Cl)=CC7=C5CCCC7
 OpenBabel09032010373D

 66 72  0  0  0  0  0  0  0  0999 V2000
   -0.7750   -3.5327    1.3108 O   0  0  0  0  0  0  0  0  0  0  0  0
   -0.1754   -2.6198    0.2873 P   0  0  0  0  0  0  0  0  0  0  0  0
    0.4787   -3.4926   -0.8944 O   0  0  0  0  0  0  0  0  0  0  0  0
    1.0359   -1.6920    0.8053 O   0  0  0  0  0  0  0  0  0  0  0  0
    1.5027   -0.6821   -0.0079 C   0  0  0  0  0  0  0  0  0  0  0  0
    2.8466   -0.7631   -0.4173 C   0  0  0  0  0  0  0  0  0  0  0  0
    3.7299   -1.8568    0.0338 C   0  0  0  0  0  0  0  0  0  0  0  0
    4.2719   -1.8675    1.3378 C   0  0  0  0  0  0  0  0  0  0  0  0
    3.9933   -0.5705    2.4551 Cl  0  0  0  0  0  0  0  0  0  0  0  0
    5.0789   -2.9190    1.7833 C   0  0  0  0  0  0  0  0  0  0  0  0
    5.3654   -3.9765    0.9293 C   0  0  0  0  0  0  0  0  0  0  0  0
    6.3577   -5.2707    1.4756 Cl  0  0  0  0  0  0  0  0  0  0  0  0
    4.8629   -3.9922   -0.3660 C   0  0  0  0  0  0  0  0  0  0  0  0
    4.0541   -2.9406   -0.8101 C   0  0  0  0  0  0  0  0  0  0  0  0
    3.4816   -3.0355   -2.4436 Cl  0  0  0  0  0  0  0  0  0  0  0  0
    3.3350    0.2306   -1.2693 C   0  0  0  0  0  0  0  0  0  0  0  0
    2.5015    1.2500   -1.7486 C   0  0  0  0  0  0  0  0  0  0  0  0
    1.1541    1.3146   -1.3226 C   0  0  0  0  0  0  0  0  0  0  0  0
    0.2131    2.3136   -1.9858 C   0  0  0  0  0  0  0  0  0  0  0  0
    0.7376    2.8744   -3.3068 C   0  0  0  0  0  0  0  0  0  0  0  0
    2.1636    3.3662   -3.1237 C   0  0  0  0  0  0  0  0  0  0  0  0
    3.0752    2.1944   -2.7807 C   0  0  0  0  0  0  0  0  0  0  0  0
    0.6530    0.3953   -0.3487 C   0  0  0  0  0  0  0  0  0  0  0  0
   -0.6419    0.5233    0.2581 C   0  0  0  0  0  0  0  0  0  0  0  0
   -1.5959   -0.5076    0.1200 C   0  0  0  0  0  0  0  0  0  0  0  0
   -1.2225   -1.6794   -0.4972 O   0  0  0  0  0  0  0  0  0  0  0  0
   -2.9279   -0.3964    0.5542 C   0  0  0  0  0  0  0  0  0  0  0  0
   -3.9017   -1.4862    0.3528 C   0  0  0  0  0  0  0  0  0  0  0  0
   -4.2369   -2.3729    1.3988 C   0  0  0  0  0  0  0  0  0  0  0  0
   -3.5690   -2.2033    2.9894 Cl  0  0  0  0  0  0  0  0  0  0  0  0
   -5.1305   -3.4297    1.1987 C   0  0  0  0  0  0  0  0  0  0  0  0
   -5.7102   -3.6146   -0.0505 C   0  0  0  0  0  0  0  0  0  0  0  0
   -6.8076   -4.9154   -0.2992 Cl  0  0  0  0  0  0  0  0  0  0  0  0
   -5.4138   -2.7531   -1.0997 C   0  0  0  0  0  0  0  0  0  0  0  0
   -4.5185   -1.6978   -0.8986 C   0  0  0  0  0  0  0  0  0  0  0  0
   -4.2166   -0.6581   -2.2527 Cl  0  0  0  0  0  0  0  0  0  0  0  0
   -3.3072    0.7786    1.2074 C   0  0  0  0  0  0  0  0  0  0  0  0
   -2.3768    1.7916    1.4781 C   0  0  0  0  0  0  0  0  0  0  0  0
   -1.0377    1.6515    1.0428 C   0  0  0  0  0  0  0  0  0  0  0  0
    0.0029    2.6651    1.5042 C   0  0  0  0  0  0  0  0  0  0  0  0
   -0.4416    3.5076    2.6988 C   0  0  0  0  0  0  0  0  0  0  0  0
   -1.8210    4.0862    2.4320 C   0  0  0  0  0  0  0  0  0  0  0  0
   -2.8412    2.9602    2.3178 C   0  0  0  0  0  0  0  0  0  0  0  0
    0.0659   -4.3745   -0.9214 H   0  0  0  0  0  0  0  0  0  0  0  0
    5.4803   -2.9091    2.7936 H   0  0  0  0  0  0  0  0  0  0  0  0
    5.0963   -4.8204   -1.0306 H   0  0  0  0  0  0  0  0  0  0  0  0
    4.3700    0.1868   -1.6068 H   0  0  0  0  0  0  0  0  0  0  0  0
   -0.7527    1.8350   -2.1877 H   0  0  0  0  0  0  0  0  0  0  0  0
    0.0344    3.1560   -1.3155 H   0  0  0  0  0  0  0  0  0  0  0  0
    0.7039    2.1029   -4.0863 H   0  0  0  0  0  0  0  0  0  0  0  0
    0.0934    3.6965   -3.6384 H   0  0  0  0  0  0  0  0  0  0  0  0
    2.5194    3.8567   -4.0365 H   0  0  0  0  0  0  0  0  0  0  0  0
    2.1972    4.1152   -2.3223 H   0  0  0  0  0  0  0  0  0  0  0  0
    4.0373    2.5857   -2.4286 H   0  0  0  0  0  0  0  0  0  0  0  0
    3.2678    1.6167   -3.6940 H   0  0  0  0  0  0  0  0  0  0  0  0
   -5.3673   -4.1063    2.0163 H   0  0  0  0  0  0  0  0  0  0  0  0
   -5.8754   -2.9002   -2.0731 H   0  0  0  0  0  0  0  0  0  0  0  0
   -4.3319    0.8890    1.5611 H   0  0  0  0  0  0  0  0  0  0  0  0
    0.9260    2.1459    1.7884 H   0  0  0  0  0  0  0  0  0  0  0  0
    0.2417    3.3482    0.6873 H   0  0  0  0  0  0  0  0  0  0  0  0
    0.2807    4.3140    2.8685 H   0  0  0  0  0  0  0  0  0  0  0  0
   -0.4612    2.8947    3.6088 H   0  0  0  0  0  0  0  0  0  0  0  0
   -2.1122    4.7687    3.2381 H   0  0  0  0  0  0  0  0  0  0  0  0
   -1.8038    4.6728    1.5047 H   0  0  0  0  0  0  0  0  0  0  0  0
   -3.0654    2.5826    3.3239 H   0  0  0  0  0  0  0  0  0  0  0  0
   -3.7716    3.3660    1.9026 H   0  0  0  0  0  0  0  0  0  0  0  0
  2  4  1  0  0  0  0
  2  1  2  0  0  0  0
  3  2  1  0  0  0  0
  5  4  1  0  0  0  0
  6  5  1  0  0  0  0
  6  7  1  0  0  0  0
  7  8  2  0  0  0  0
  8 10  1  0  0  0  0
  8  9  1  0  0  0  0
 10 45  1  0  0  0  0
 11 12  1  0  0  0  0
 11 10  2  0  0  0  0
 13 11  1  0  0  0  0
 14 13  2  0  0  0  0
 14  7  1  0  0  0  0
 15 14  1  0  0  0  0
 16  6  2  0  0  0  0
 17 18  2  0  0  0  0
 17 16  1  0  0  0  0
 18 23  1  0  0  0  0
 19 18  1  0  0  0  0
 19 49  1  0  0  0  0
 20 21  1  0  0  0  0
 20 19  1  0  0  0  0
 21 22  1  0  0  0  0
 21 53  1  0  0  0  0
 22 54  1  0  0  0  0
 22 17  1  0  0  0  0
 23  5  2  0  0  0  0
 23 24  1  0  0  0  0
 24 39  1  0  0  0  0
 25 24  2  0  0  0  0
 25 27  1  0  0  0  0
 26 25  1  0  0  0  0
 26  2  1  0  0  0  0
 27 37  2  0  0  0  0
 28 27  1  0  0  0  0
 28 29  2  0  0  0  0
 29 30  1  0  0  0  0
 31 29  1  0  0  0  0
 31 56  1  0  0  0  0
 32 31  2  0  0  0  0
 33 32  1  0  0  0  0
 34 35  2  0  0  0  0
 34 32  1  0  0  0  0
 35 28  1  0  0  0  0
 36 35  1  0  0  0  0
 37 38  1  0  0  0  0
 37 58  1  0  0  0  0
 38 43  1  0  0  0  0
 39 38  2  0  0  0  0
 39 40  1  0  0  0  0
 40 59  1  0  0  0  0
 40 41  1  0  0  0  0
 41 61  1  0  0  0  0
 41 62  1  0  0  0  0
 42 41  1  0  0  0  0
 42 63  1  0  0  0  0
 43 42  1  0  0  0  0
 43 65  1  0  0  0  0
 44  3  1  0  0  0  0
 46 13  1  0  0  0  0
 47 16  1  0  0  0  0
 48 19  1  0  0  0  0
 50 20  1  0  0  0  0
 51 20  1  0  0  0  0
 52 21  1  0  0  0  0
 55 22  1  0  0  0  0
 57 34  1  0  0  0  0
 60 40  1  0  0  0  0
 64 42  1  0  0  0  0
 66 43  1  0  0  0  0
M  END
$$$$
