O=P1(O)OC2=C(C3=C(OC(F)(F)F)C=CC=C3)C=C4C(C=CC=C4)=C2C5=C(O1)C(C6=CC=CC=C6OC(F)(F)F)=CC7=C5C=CC=C7
 OpenBabel09032010383D

 66 72  0  0  0  0  0  0  0  0999 V2000
    0.8924   -2.4183    2.0664 O   0  0  0  0  0  0  0  0  0  0  0  0
    0.1655   -1.1955    1.5980 P   0  0  0  0  0  0  0  0  0  0  0  0
   -0.6456   -0.5211    2.8108 O   0  0  0  0  0  0  0  0  0  0  0  0
    1.0821    0.0069    1.0485 O   0  0  0  0  0  0  0  0  0  0  0  0
    1.5425   -0.0919   -0.2444 C   0  0  0  0  0  0  0  0  0  0  0  0
    2.9264   -0.2670   -0.4145 C   0  0  0  0  0  0  0  0  0  0  0  0
    3.8588   -0.3576    0.7208 C   0  0  0  0  0  0  0  0  0  0  0  0
    4.6084    0.7496    1.1601 C   0  0  0  0  0  0  0  0  0  0  0  0
    4.4923    1.9372    0.4854 O   0  0  0  0  0  0  0  0  0  0  0  0
    3.8889    2.9451    1.2881 C   0  0  0  0  0  0  0  0  0  0  0  0
    4.7792    3.4469    2.1721 F   0  0  0  0  0  0  0  0  0  0  0  0
    3.4899    3.9549    0.4818 F   0  0  0  0  0  0  0  0  0  0  0  0
    2.8076    2.4875    1.9538 F   0  0  0  0  0  0  0  0  0  0  0  0
    5.5241    0.6269    2.2107 C   0  0  0  0  0  0  0  0  0  0  0  0
    5.6703   -0.5938    2.8668 C   0  0  0  0  0  0  0  0  0  0  0  0
    4.9200   -1.6943    2.4617 C   0  0  0  0  0  0  0  0  0  0  0  0
    4.0284   -1.5788    1.3929 C   0  0  0  0  0  0  0  0  0  0  0  0
    3.4188   -0.3527   -1.7164 C   0  0  0  0  0  0  0  0  0  0  0  0
    2.5677   -0.3024   -2.8230 C   0  0  0  0  0  0  0  0  0  0  0  0
    1.1705   -0.1193   -2.6412 C   0  0  0  0  0  0  0  0  0  0  0  0
    0.3758   -0.1769   -3.8149 C   0  0  0  0  0  0  0  0  0  0  0  0
    0.9257   -0.3362   -5.0900 C   0  0  0  0  0  0  0  0  0  0  0  0
    2.2972   -0.4632   -5.2384 C   0  0  0  0  0  0  0  0  0  0  0  0
    3.1115   -0.4530   -4.1101 C   0  0  0  0  0  0  0  0  0  0  0  0
    0.6265    0.0586   -1.3165 C   0  0  0  0  0  0  0  0  0  0  0  0
   -0.7624    0.3902   -1.0528 C   0  0  0  0  0  0  0  0  0  0  0  0
   -1.5381   -0.4046   -0.1703 C   0  0  0  0  0  0  0  0  0  0  0  0
   -0.9596   -1.4713    0.4813 O   0  0  0  0  0  0  0  0  0  0  0  0
   -2.9198   -0.2297    0.0293 C   0  0  0  0  0  0  0  0  0  0  0  0
   -3.7061   -1.1162    0.9060 C   0  0  0  0  0  0  0  0  0  0  0  0
   -4.1183   -2.3714    0.4243 C   0  0  0  0  0  0  0  0  0  0  0  0
   -4.8686   -3.2339    1.2219 C   0  0  0  0  0  0  0  0  0  0  0  0
   -5.2240   -2.8508    2.5108 C   0  0  0  0  0  0  0  0  0  0  0  0
   -4.8251   -1.6090    3.0096 C   0  0  0  0  0  0  0  0  0  0  0  0
   -4.0555   -0.7441    2.2222 C   0  0  0  0  0  0  0  0  0  0  0  0
   -3.6332    0.4930    2.6348 O   0  0  0  0  0  0  0  0  0  0  0  0
   -3.3930    0.6563    4.0213 C   0  0  0  0  0  0  0  0  0  0  0  0
   -4.5593    0.7828    4.6926 F   0  0  0  0  0  0  0  0  0  0  0  0
   -2.6964   -0.3837    4.5374 F   0  0  0  0  0  0  0  0  0  0  0  0
   -2.6771    1.7848    4.2167 F   0  0  0  0  0  0  0  0  0  0  0  0
   -3.5549    0.8161   -0.6405 C   0  0  0  0  0  0  0  0  0  0  0  0
   -2.8416    1.6907   -1.4626 C   0  0  0  0  0  0  0  0  0  0  0  0
   -1.4459    1.5075   -1.6615 C   0  0  0  0  0  0  0  0  0  0  0  0
   -0.7922    2.5018   -2.4345 C   0  0  0  0  0  0  0  0  0  0  0  0
   -1.4773    3.5638   -3.0321 C   0  0  0  0  0  0  0  0  0  0  0  0
   -2.8465    3.6853   -2.8598 C   0  0  0  0  0  0  0  0  0  0  0  0
   -3.5219    2.7584   -2.0723 C   0  0  0  0  0  0  0  0  0  0  0  0
   -0.8326   -1.1859    3.5001 H   0  0  0  0  0  0  0  0  0  0  0  0
    6.1357    1.4709    2.5188 H   0  0  0  0  0  0  0  0  0  0  0  0
    6.3743   -0.6892    3.6896 H   0  0  0  0  0  0  0  0  0  0  0  0
    5.0274   -2.6482    2.9718 H   0  0  0  0  0  0  0  0  0  0  0  0
    3.4596   -2.4560    1.0868 H   0  0  0  0  0  0  0  0  0  0  0  0
    4.4903   -0.4870   -1.8624 H   0  0  0  0  0  0  0  0  0  0  0  0
   -0.7088   -0.1092   -3.7507 H   0  0  0  0  0  0  0  0  0  0  0  0
    0.2761   -0.3655   -5.9610 H   0  0  0  0  0  0  0  0  0  0  0  0
    2.7333   -0.5875   -6.2257 H   0  0  0  0  0  0  0  0  0  0  0  0
    4.1845   -0.5786   -4.2443 H   0  0  0  0  0  0  0  0  0  0  0  0
   -3.8505   -2.6814   -0.5846 H   0  0  0  0  0  0  0  0  0  0  0  0
   -5.1785   -4.2005    0.8327 H   0  0  0  0  0  0  0  0  0  0  0  0
   -5.8197   -3.5181    3.1294 H   0  0  0  0  0  0  0  0  0  0  0  0
   -5.1454   -1.3427    4.0129 H   0  0  0  0  0  0  0  0  0  0  0  0
   -4.6246    0.9610   -0.4922 H   0  0  0  0  0  0  0  0  0  0  0  0
    0.2867    2.4701   -2.5762 H   0  0  0  0  0  0  0  0  0  0  0  0
   -0.9360    4.2932   -3.6291 H   0  0  0  0  0  0  0  0  0  0  0  0
   -3.3865    4.5080   -3.3200 H   0  0  0  0  0  0  0  0  0  0  0  0
   -4.5931    2.8859   -1.9261 H   0  0  0  0  0  0  0  0  0  0  0  0
  2  1  2  0  0  0  0
  2  3  1  0  0  0  0
  3 48  1  0  0  0  0
  4  2  1  0  0  0  0
  5  4  1  0  0  0  0
  6  5  1  0  0  0  0
  6  7  1  0  0  0  0
  7  8  2  0  0  0  0
  7 17  1  0  0  0  0
  8 14  1  0  0  0  0
  9  8  1  0  0  0  0
  9 10  1  0  0  0  0
 10 13  1  0  0  0  0
 10 11  1  0  0  0  0
 12 10  1  0  0  0  0
 14 49  1  0  0  0  0
 14 15  2  0  0  0  0
 15 50  1  0  0  0  0
 16 15  1  0  0  0  0
 16 51  1  0  0  0  0
 17 16  2  0  0  0  0
 18  6  2  0  0  0  0
 19 20  1  0  0  0  0
 19 18  1  0  0  0  0
 20 25  1  0  0  0  0
 21 54  1  0  0  0  0
 21 20  2  0  0  0  0
 22 21  1  0  0  0  0
 23 22  2  0  0  0  0
 23 24  1  0  0  0  0
 24 19  2  0  0  0  0
 25 26  1  0  0  0  0
 25  5  2  0  0  0  0
 26 27  2  0  0  0  0
 27 29  1  0  0  0  0
 27 28  1  0  0  0  0
 28  2  1  0  0  0  0
 29 30  1  0  0  0  0
 30 35  1  0  0  0  0
 31 30  2  0  0  0  0
 31 32  1  0  0  0  0
 32 33  2  0  0  0  0
 33 34  1  0  0  0  0
 33 60  1  0  0  0  0
 34 61  1  0  0  0  0
 35 36  1  0  0  0  0
 35 34  2  0  0  0  0
 36 37  1  0  0  0  0
 37 40  1  0  0  0  0
 37 39  1  0  0  0  0
 37 38  1  0  0  0  0
 41 62  1  0  0  0  0
 41 29  2  0  0  0  0
 42 41  1  0  0  0  0
 43 42  1  0  0  0  0
 43 26  1  0  0  0  0
 44 43  2  0  0  0  0
 45 46  2  0  0  0  0
 45 44  1  0  0  0  0
 46 47  1  0  0  0  0
 47 66  1  0  0  0  0
 47 42  2  0  0  0  0
 52 17  1  0  0  0  0
 53 18  1  0  0  0  0
 55 22  1  0  0  0  0
 56 23  1  0  0  0  0
 57 24  1  0  0  0  0
 58 31  1  0  0  0  0
 59 32  1  0  0  0  0
 63 44  1  0  0  0  0
 64 45  1  0  0  0  0
 65 46  1  0  0  0  0
M  END
$$$$
