O=P1(O)OC2=C(C3=CC=C(OC)C=C3)C=C4C(C=CC=C4)=C2C5=C(O1)C(C6=CC=C(OC)C=C6)=CC7=C5C=CC=C7
 OpenBabel09032010383D

 66 72  0  0  0  0  0  0  0  0999 V2000
   -0.8580    2.0658   -1.7291 O   0  0  0  0  0  0  0  0  0  0  0  0
   -0.1842    1.4173   -0.5602 P   0  0  0  0  0  0  0  0  0  0  0  0
    0.5425    2.5046    0.3772 O   0  0  0  0  0  0  0  0  0  0  0  0
    1.0051    0.4031   -0.9462 O   0  0  0  0  0  0  0  0  0  0  0  0
    1.5564   -0.3848    0.0403 C   0  0  0  0  0  0  0  0  0  0  0  0
    2.8905   -0.1087    0.3920 C   0  0  0  0  0  0  0  0  0  0  0  0
    3.6472    1.0071   -0.2001 C   0  0  0  0  0  0  0  0  0  0  0  0
    4.0706    2.0844    0.5945 C   0  0  0  0  0  0  0  0  0  0  0  0
    4.7806    3.1583    0.0431 C   0  0  0  0  0  0  0  0  0  0  0  0
    5.0811    3.1733   -1.3174 C   0  0  0  0  0  0  0  0  0  0  0  0
    5.7605    4.1561   -1.9817 O   0  0  0  0  0  0  0  0  0  0  0  0
    6.2301    5.2520   -1.2066 C   0  0  0  0  0  0  0  0  0  0  0  0
    4.6653    2.1071   -2.1165 C   0  0  0  0  0  0  0  0  0  0  0  0
    3.9576    1.0342   -1.5660 C   0  0  0  0  0  0  0  0  0  0  0  0
    3.4901   -0.9218    1.3549 C   0  0  0  0  0  0  0  0  0  0  0  0
    2.7847   -1.9512    1.9843 C   0  0  0  0  0  0  0  0  0  0  0  0
    1.4318   -2.2098    1.6344 C   0  0  0  0  0  0  0  0  0  0  0  0
    0.7677   -3.1997    2.4042 C   0  0  0  0  0  0  0  0  0  0  0  0
    1.4119   -3.9374    3.4012 C   0  0  0  0  0  0  0  0  0  0  0  0
    2.7468   -3.6980    3.6820 C   0  0  0  0  0  0  0  0  0  0  0  0
    3.4255   -2.7050    2.9824 C   0  0  0  0  0  0  0  0  0  0  0  0
    0.7929   -1.4458    0.5895 C   0  0  0  0  0  0  0  0  0  0  0  0
   -0.5495   -1.7062    0.1061 C   0  0  0  0  0  0  0  0  0  0  0  0
   -1.5121   -0.6645    0.0903 C   0  0  0  0  0  0  0  0  0  0  0  0
   -1.1316    0.6075    0.4603 O   0  0  0  0  0  0  0  0  0  0  0  0
   -2.8697   -0.8604   -0.2141 C   0  0  0  0  0  0  0  0  0  0  0  0
   -3.8567    0.2241   -0.1468 C   0  0  0  0  0  0  0  0  0  0  0  0
   -4.0206    1.1186   -1.2132 C   0  0  0  0  0  0  0  0  0  0  0  0
   -4.9657    2.1502   -1.1514 C   0  0  0  0  0  0  0  0  0  0  0  0
   -5.7674    2.2998   -0.0209 C   0  0  0  0  0  0  0  0  0  0  0  0
   -6.7242    3.2588    0.1672 O   0  0  0  0  0  0  0  0  0  0  0  0
   -6.8874    4.2135   -0.8741 C   0  0  0  0  0  0  0  0  0  0  0  0
   -5.6141    1.4096    1.0434 C   0  0  0  0  0  0  0  0  0  0  0  0
   -4.6685    0.3819    0.9839 C   0  0  0  0  0  0  0  0  0  0  0  0
   -3.2813   -2.1432   -0.5780 C   0  0  0  0  0  0  0  0  0  0  0  0
   -2.3727   -3.2008   -0.6721 C   0  0  0  0  0  0  0  0  0  0  0  0
   -1.0031   -2.9960   -0.3541 C   0  0  0  0  0  0  0  0  0  0  0  0
   -0.1391   -4.1008   -0.5663 C   0  0  0  0  0  0  0  0  0  0  0  0
   -0.6029   -5.3459   -0.9994 C   0  0  0  0  0  0  0  0  0  0  0  0
   -1.9522   -5.5281   -1.2554 C   0  0  0  0  0  0  0  0  0  0  0  0
   -2.8296   -4.4592   -1.0990 C   0  0  0  0  0  0  0  0  0  0  0  0
    0.9780    3.1803   -0.1735 H   0  0  0  0  0  0  0  0  0  0  0  0
    3.8362    2.0996    1.6580 H   0  0  0  0  0  0  0  0  0  0  0  0
    5.0796    3.9633    0.7058 H   0  0  0  0  0  0  0  0  0  0  0  0
    6.7585    5.9349   -1.8787 H   0  0  0  0  0  0  0  0  0  0  0  0
    5.3969    5.8036   -0.7587 H   0  0  0  0  0  0  0  0  0  0  0  0
    6.9410    4.9198   -0.4428 H   0  0  0  0  0  0  0  0  0  0  0  0
    4.8944    2.1088   -3.1797 H   0  0  0  0  0  0  0  0  0  0  0  0
    3.6476    0.2173   -2.2150 H   0  0  0  0  0  0  0  0  0  0  0  0
    4.5264   -0.7302    1.6322 H   0  0  0  0  0  0  0  0  0  0  0  0
   -0.2892   -3.4066    2.2453 H   0  0  0  0  0  0  0  0  0  0  0  0
    0.8618   -4.6920    3.9571 H   0  0  0  0  0  0  0  0  0  0  0  0
    3.2551   -4.2666    4.4558 H   0  0  0  0  0  0  0  0  0  0  0  0
    4.4664   -2.5127    3.2365 H   0  0  0  0  0  0  0  0  0  0  0  0
   -3.4014    1.0247   -2.1041 H   0  0  0  0  0  0  0  0  0  0  0  0
   -5.0422    2.8169   -2.0035 H   0  0  0  0  0  0  0  0  0  0  0  0
   -7.6697    4.9138   -0.5656 H   0  0  0  0  0  0  0  0  0  0  0  0
   -5.9688    4.7888   -1.0308 H   0  0  0  0  0  0  0  0  0  0  0  0
   -7.2174    3.7333   -1.8012 H   0  0  0  0  0  0  0  0  0  0  0  0
   -6.2320    1.5186    1.9310 H   0  0  0  0  0  0  0  0  0  0  0  0
   -4.5647   -0.2927    1.8309 H   0  0  0  0  0  0  0  0  0  0  0  0
   -4.3317   -2.3072   -0.8182 H   0  0  0  0  0  0  0  0  0  0  0  0
    0.9332   -4.0019   -0.4057 H   0  0  0  0  0  0  0  0  0  0  0  0
    0.0967   -6.1656   -1.1393 H   0  0  0  0  0  0  0  0  0  0  0  0
   -2.3209   -6.4929   -1.5927 H   0  0  0  0  0  0  0  0  0  0  0  0
   -3.8823   -4.6149   -1.3288 H   0  0  0  0  0  0  0  0  0  0  0  0
  1  2  2  0  0  0  0
  2  3  1  0  0  0  0
  2 25  1  0  0  0  0
  4  2  1  0  0  0  0
  4  5  1  0  0  0  0
  5  6  2  0  0  0  0
  5 22  1  0  0  0  0
  6 15  1  0  0  0  0
  7  6  1  0  0  0  0
  7  8  2  0  0  0  0
  8 43  1  0  0  0  0
  9  8  1  0  0  0  0
  9 44  1  0  0  0  0
 10  9  2  0  0  0  0
 11 10  1  0  0  0  0
 11 12  1  0  0  0  0
 12 46  1  0  0  0  0
 12 47  1  0  0  0  0
 13 14  2  0  0  0  0
 13 10  1  0  0  0  0
 14  7  1  0  0  0  0
 15 50  1  0  0  0  0
 15 16  2  0  0  0  0
 16 21  1  0  0  0  0
 17 16  1  0  0  0  0
 17 18  1  0  0  0  0
 18 19  2  0  0  0  0
 19 20  1  0  0  0  0
 19 52  1  0  0  0  0
 20 53  1  0  0  0  0
 21 54  1  0  0  0  0
 21 20  2  0  0  0  0
 22 17  2  0  0  0  0
 23 22  1  0  0  0  0
 24 23  1  0  0  0  0
 24 25  1  0  0  0  0
 26 27  1  0  0  0  0
 26 24  2  0  0  0  0
 27 34  2  0  0  0  0
 28 29  2  0  0  0  0
 28 27  1  0  0  0  0
 29 30  1  0  0  0  0
 30 31  1  0  0  0  0
 30 33  2  0  0  0  0
 32 57  1  0  0  0  0
 32 31  1  0  0  0  0
 33 60  1  0  0  0  0
 34 33  1  0  0  0  0
 34 61  1  0  0  0  0
 35 26  1  0  0  0  0
 36 35  2  0  0  0  0
 36 37  1  0  0  0  0
 37 23  2  0  0  0  0
 38 63  1  0  0  0  0
 38 37  1  0  0  0  0
 39 38  2  0  0  0  0
 40 41  2  0  0  0  0
 40 39  1  0  0  0  0
 41 36  1  0  0  0  0
 42  3  1  0  0  0  0
 45 12  1  0  0  0  0
 48 13  1  0  0  0  0
 49 14  1  0  0  0  0
 51 18  1  0  0  0  0
 55 28  1  0  0  0  0
 56 29  1  0  0  0  0
 58 32  1  0  0  0  0
 59 32  1  0  0  0  0
 62 35  1  0  0  0  0
 64 39  1  0  0  0  0
 65 40  1  0  0  0  0
 66 41  1  0  0  0  0
M  END
$$$$
