O=P1(O)OC2=C(CC3=C(C=CC=C4)C4=CC5=C3C=CC=C5)C=C6C(C=CC=C6)=C2C7=C(O1)C(CC8=C(C=CC=C9)C9=CC%10=C8C=CC=C%10)=CC%11=C7C=CC=C%11
 OpenBabel09032010373D

 88 98  0  0  0  0  0  0  0  0999 V2000
    0.9411    3.5602   -0.6967 O   0  0  0  0  0  0  0  0  0  0  0  0
    0.6374    2.0968   -0.8030 P   0  0  0  0  0  0  0  0  0  0  0  0
    0.3778    1.6284   -2.3200 O   0  0  0  0  0  0  0  0  0  0  0  0
   -0.6937    1.6361   -0.0218 O   0  0  0  0  0  0  0  0  0  0  0  0
   -0.9200    0.3060    0.2460 C   0  0  0  0  0  0  0  0  0  0  0  0
   -2.0755   -0.2522   -0.3300 C   0  0  0  0  0  0  0  0  0  0  0  0
   -2.9428    0.5598   -1.2785 C   0  0  0  0  0  0  0  0  0  0  0  0
   -4.4421    0.2608   -1.2414 C   0  0  0  0  0  0  0  0  0  0  0  0
   -5.0446   -0.5542   -2.2589 C   0  0  0  0  0  0  0  0  0  0  0  0
   -4.3409   -1.1768   -3.3227 C   0  0  0  0  0  0  0  0  0  0  0  0
   -4.9836   -1.9548   -4.2908 C   0  0  0  0  0  0  0  0  0  0  0  0
   -6.3545   -2.1423   -4.2267 C   0  0  0  0  0  0  0  0  0  0  0  0
   -7.0766   -1.5567   -3.1911 C   0  0  0  0  0  0  0  0  0  0  0  0
   -6.4407   -0.7743   -2.2108 C   0  0  0  0  0  0  0  0  0  0  0  0
   -7.2027   -0.2159   -1.1790 C   0  0  0  0  0  0  0  0  0  0  0  0
   -6.6253    0.5565   -0.1658 C   0  0  0  0  0  0  0  0  0  0  0  0
   -5.2348    0.8056   -0.1754 C   0  0  0  0  0  0  0  0  0  0  0  0
   -4.7195    1.5885    0.8895 C   0  0  0  0  0  0  0  0  0  0  0  0
   -5.5354    2.1005    1.9022 C   0  0  0  0  0  0  0  0  0  0  0  0
   -6.8976    1.8470    1.8845 C   0  0  0  0  0  0  0  0  0  0  0  0
   -7.4373    1.0787    0.8566 C   0  0  0  0  0  0  0  0  0  0  0  0
   -2.3601   -1.5902   -0.0533 C   0  0  0  0  0  0  0  0  0  0  0  0
   -1.5307   -2.3589    0.7682 C   0  0  0  0  0  0  0  0  0  0  0  0
   -0.3732   -1.7832    1.3556 C   0  0  0  0  0  0  0  0  0  0  0  0
    0.4601   -2.6700    2.0866 C   0  0  0  0  0  0  0  0  0  0  0  0
    0.1393   -4.0155    2.2886 C   0  0  0  0  0  0  0  0  0  0  0  0
   -1.0255   -4.5335    1.7477 C   0  0  0  0  0  0  0  0  0  0  0  0
   -1.8497   -3.7110    0.9851 C   0  0  0  0  0  0  0  0  0  0  0  0
   -0.0699   -0.3881    1.1480 C   0  0  0  0  0  0  0  0  0  0  0  0
    1.0334    0.2894    1.8048 C   0  0  0  0  0  0  0  0  0  0  0  0
    2.0065    0.9671    1.0303 C   0  0  0  0  0  0  0  0  0  0  0  0
    1.7960    1.0914   -0.3186 O   0  0  0  0  0  0  0  0  0  0  0  0
    3.2105    1.4702    1.5491 C   0  0  0  0  0  0  0  0  0  0  0  0
    4.2940    2.1128    0.6929 C   0  0  0  0  0  0  0  0  0  0  0  0
    4.7117    1.3266   -0.5539 C   0  0  0  0  0  0  0  0  0  0  0  0
    5.4055    0.0770   -0.3974 C   0  0  0  0  0  0  0  0  0  0  0  0
    5.8583   -0.4438    0.8416 C   0  0  0  0  0  0  0  0  0  0  0  0
    6.5223   -1.6699    0.9419 C   0  0  0  0  0  0  0  0  0  0  0  0
    6.7654   -2.4175   -0.1985 C   0  0  0  0  0  0  0  0  0  0  0  0
    6.3407   -1.9373   -1.4337 C   0  0  0  0  0  0  0  0  0  0  0  0
    5.6669   -0.7071   -1.5440 C   0  0  0  0  0  0  0  0  0  0  0  0
    5.2442   -0.2652   -2.8010 C   0  0  0  0  0  0  0  0  0  0  0  0
    4.5936    0.9612   -2.9743 C   0  0  0  0  0  0  0  0  0  0  0  0
    4.3537    1.8013   -1.8633 C   0  0  0  0  0  0  0  0  0  0  0  0
    3.7526    3.0574   -2.1434 C   0  0  0  0  0  0  0  0  0  0  0  0
    3.3568    3.4339   -3.4299 C   0  0  0  0  0  0  0  0  0  0  0  0
    3.5515    2.5652   -4.4884 C   0  0  0  0  0  0  0  0  0  0  0  0
    4.1759    1.3425   -4.2615 C   0  0  0  0  0  0  0  0  0  0  0  0
    3.3951    1.4104    2.9329 C   0  0  0  0  0  0  0  0  0  0  0  0
    2.4311    0.8489    3.7760 C   0  0  0  0  0  0  0  0  0  0  0  0
    1.2432    0.2943    3.2307 C   0  0  0  0  0  0  0  0  0  0  0  0
    0.2890   -0.1874    4.1629 C   0  0  0  0  0  0  0  0  0  0  0  0
    0.5136   -0.1776    5.5420 C   0  0  0  0  0  0  0  0  0  0  0  0
    1.6998    0.3337    6.0428 C   0  0  0  0  0  0  0  0  0  0  0  0
    2.6491    0.8490    5.1647 C   0  0  0  0  0  0  0  0  0  0  0  0
    1.1090    1.9292   -2.8946 H   0  0  0  0  0  0  0  0  0  0  0  0
   -2.8308    1.6346   -1.0872 H   0  0  0  0  0  0  0  0  0  0  0  0
   -2.5322    0.4488   -2.2866 H   0  0  0  0  0  0  0  0  0  0  0  0
   -3.2630   -1.0800   -3.4170 H   0  0  0  0  0  0  0  0  0  0  0  0
   -4.4055   -2.4128   -5.0892 H   0  0  0  0  0  0  0  0  0  0  0  0
   -6.8621   -2.7448   -4.9749 H   0  0  0  0  0  0  0  0  0  0  0  0
   -8.1522   -1.7194   -3.1530 H   0  0  0  0  0  0  0  0  0  0  0  0
   -8.2770   -0.3956   -1.1581 H   0  0  0  0  0  0  0  0  0  0  0  0
   -3.6576    1.8125    0.9573 H   0  0  0  0  0  0  0  0  0  0  0  0
   -5.0982    2.6939    2.7011 H   0  0  0  0  0  0  0  0  0  0  0  0
   -7.5396    2.2419    2.6669 H   0  0  0  0  0  0  0  0  0  0  0  0
   -8.5083    0.8862    0.8605 H   0  0  0  0  0  0  0  0  0  0  0  0
   -3.2387   -2.0554   -0.4980 H   0  0  0  0  0  0  0  0  0  0  0  0
    1.4025   -2.3216    2.5053 H   0  0  0  0  0  0  0  0  0  0  0  0
    0.8090   -4.6506    2.8622 H   0  0  0  0  0  0  0  0  0  0  0  0
   -1.2857   -5.5774    1.9001 H   0  0  0  0  0  0  0  0  0  0  0  0
   -2.7491   -4.1407    0.5457 H   0  0  0  0  0  0  0  0  0  0  0  0
    5.2027    2.2767    1.2884 H   0  0  0  0  0  0  0  0  0  0  0  0
    3.9545    3.1252    0.4656 H   0  0  0  0  0  0  0  0  0  0  0  0
    5.7054    0.1042    1.7661 H   0  0  0  0  0  0  0  0  0  0  0  0
    6.8461   -2.0335    1.9135 H   0  0  0  0  0  0  0  0  0  0  0  0
    7.2835   -3.3700   -0.1308 H   0  0  0  0  0  0  0  0  0  0  0  0
    6.5426   -2.5385   -2.3187 H   0  0  0  0  0  0  0  0  0  0  0  0
    5.4383   -0.8924   -3.6714 H   0  0  0  0  0  0  0  0  0  0  0  0
    3.5668    3.7849   -1.3575 H   0  0  0  0  0  0  0  0  0  0  0  0
    2.8931    4.4048   -3.5902 H   0  0  0  0  0  0  0  0  0  0  0  0
    3.2347    2.8400   -5.4898 H   0  0  0  0  0  0  0  0  0  0  0  0
    4.3357    0.6776   -5.1076 H   0  0  0  0  0  0  0  0  0  0  0  0
    4.3047    1.8258    3.3651 H   0  0  0  0  0  0  0  0  0  0  0  0
   -0.6694   -0.5737    3.8194 H   0  0  0  0  0  0  0  0  0  0  0  0
   -0.2451   -0.5653    6.2167 H   0  0  0  0  0  0  0  0  0  0  0  0
    1.8816    0.3466    7.1138 H   0  0  0  0  0  0  0  0  0  0  0  0
    3.5653    1.2650    5.5796 H   0  0  0  0  0  0  0  0  0  0  0  0
  2  1  2  0  0  0  0
  2 32  1  0  0  0  0
  2  4  1  0  0  0  0
  3  2  1  0  0  0  0
  4  5  1  0  0  0  0
  5 29  2  0  0  0  0
  6 22  2  0  0  0  0
  6  5  1  0  0  0  0
  7  8  1  0  0  0  0
  7 57  1  0  0  0  0
  7  6  1  0  0  0  0
  8 17  2  0  0  0  0
  9 14  1  0  0  0  0
  9  8  1  0  0  0  0
 10  9  2  0  0  0  0
 11 12  2  0  0  0  0
 11 10  1  0  0  0  0
 12 13  1  0  0  0  0
 13 62  1  0  0  0  0
 13 14  2  0  0  0  0
 14 15  1  0  0  0  0
 15 63  1  0  0  0  0
 15 16  2  0  0  0  0
 16 21  1  0  0  0  0
 17 16  1  0  0  0  0
 17 18  1  0  0  0  0
 18 64  1  0  0  0  0
 18 19  2  0  0  0  0
 19 65  1  0  0  0  0
 20 19  1  0  0  0  0
 20 66  1  0  0  0  0
 21 67  1  0  0  0  0
 21 20  2  0  0  0  0
 22 23  1  0  0  0  0
 23 28  2  0  0  0  0
 23 24  1  0  0  0  0
 24 25  2  0  0  0  0
 25 26  1  0  0  0  0
 25 69  1  0  0  0  0
 26 70  1  0  0  0  0
 27 71  1  0  0  0  0
 27 26  2  0  0  0  0
 28 27  1  0  0  0  0
 29 24  1  0  0  0  0
 29 30  1  0  0  0  0
 30 51  2  0  0  0  0
 31 33  2  0  0  0  0
 31 30  1  0  0  0  0
 32 31  1  0  0  0  0
 33 49  1  0  0  0  0
 34 73  1  0  0  0  0
 34 33  1  0  0  0  0
 35 36  1  0  0  0  0
 35 34  1  0  0  0  0
 36 37  2  0  0  0  0
 37 38  1  0  0  0  0
 37 75  1  0  0  0  0
 38 76  1  0  0  0  0
 39 77  1  0  0  0  0
 39 38  2  0  0  0  0
 40 39  1  0  0  0  0
 41 40  2  0  0  0  0
 41 36  1  0  0  0  0
 42 41  1  0  0  0  0
 43 42  2  0  0  0  0
 43 44  1  0  0  0  0
 44 35  2  0  0  0  0
 45 44  1  0  0  0  0
 45 80  1  0  0  0  0
 46 45  2  0  0  0  0
 47 48  2  0  0  0  0
 47 46  1  0  0  0  0
 48 43  1  0  0  0  0
 49 84  1  0  0  0  0
 49 50  2  0  0  0  0
 50 55  1  0  0  0  0
 51 50  1  0  0  0  0
 51 52  1  0  0  0  0
 52 53  2  0  0  0  0
 53 54  1  0  0  0  0
 53 86  1  0  0  0  0
 54 87  1  0  0  0  0
 55 88  1  0  0  0  0
 55 54  2  0  0  0  0
 56  3  1  0  0  0  0
 58  7  1  0  0  0  0
 59 10  1  0  0  0  0
 60 11  1  0  0  0  0
 61 12  1  0  0  0  0
 68 22  1  0  0  0  0
 72 28  1  0  0  0  0
 74 34  1  0  0  0  0
 78 40  1  0  0  0  0
 79 42  1  0  0  0  0
 81 46  1  0  0  0  0
 82 47  1  0  0  0  0
 83 48  1  0  0  0  0
 85 52  1  0  0  0  0
M  END
$$$$
