O=P1(O)OC2=C(C3=CC=C(C4=CC=C(C=CC=C5)C5=C4)C=C3)C=C6C(C=CC=C6)=C2C7=C(O1)C(C8=CC=C(C9=CC(C=CC=C%10)=C%10C=C9)C=C8)=CC%11=C7C=CC=C%11
 OpenBabel09032010373D

 90100  0  0  0  0  0  0  0  0999 V2000
    0.5375   -1.2466   -0.8197 O   0  0  0  0  0  0  0  0  0  0  0  0
   -0.0573    0.0182   -0.2854 P   0  0  0  0  0  0  0  0  0  0  0  0
   -0.8432   -0.2411    1.0947 O   0  0  0  0  0  0  0  0  0  0  0  0
   -1.1712    0.6945   -1.2308 O   0  0  0  0  0  0  0  0  0  0  0  0
   -1.6204    1.9631   -0.9328 C   0  0  0  0  0  0  0  0  0  0  0  0
   -2.9621    2.0736   -0.5232 C   0  0  0  0  0  0  0  0  0  0  0  0
   -3.8261    0.8951   -0.3451 C   0  0  0  0  0  0  0  0  0  0  0  0
   -4.3085    0.5485    0.9254 C   0  0  0  0  0  0  0  0  0  0  0  0
   -5.0974   -0.5922    1.1090 C   0  0  0  0  0  0  0  0  0  0  0  0
   -5.4274   -1.4228    0.0284 C   0  0  0  0  0  0  0  0  0  0  0  0
   -6.2296   -2.6387    0.2262 C   0  0  0  0  0  0  0  0  0  0  0  0
   -5.7405   -3.8920   -0.1676 C   0  0  0  0  0  0  0  0  0  0  0  0
   -6.4931   -5.0527    0.0297 C   0  0  0  0  0  0  0  0  0  0  0  0
   -7.7613   -4.9911    0.6234 C   0  0  0  0  0  0  0  0  0  0  0  0
   -8.5311   -6.1476    0.8273 C   0  0  0  0  0  0  0  0  0  0  0  0
   -9.7929   -6.0686    1.4181 C   0  0  0  0  0  0  0  0  0  0  0  0
  -10.3001   -4.8339    1.8115 C   0  0  0  0  0  0  0  0  0  0  0  0
   -9.5463   -3.6754    1.6161 C   0  0  0  0  0  0  0  0  0  0  0  0
   -8.2743   -3.7376    1.0241 C   0  0  0  0  0  0  0  0  0  0  0  0
   -7.5011   -2.5803    0.8213 C   0  0  0  0  0  0  0  0  0  0  0  0
   -4.9556   -1.0675   -1.2436 C   0  0  0  0  0  0  0  0  0  0  0  0
   -4.1689    0.0746   -1.4280 C   0  0  0  0  0  0  0  0  0  0  0  0
   -3.4586    3.3510   -0.2605 C   0  0  0  0  0  0  0  0  0  0  0  0
   -2.6469    4.4849   -0.3606 C   0  0  0  0  0  0  0  0  0  0  0  0
   -1.2884    4.3600   -0.7590 C   0  0  0  0  0  0  0  0  0  0  0  0
   -0.5166    5.5500   -0.7278 C   0  0  0  0  0  0  0  0  0  0  0  0
   -1.0624    6.7935   -0.3971 C   0  0  0  0  0  0  0  0  0  0  0  0
   -2.4031    6.8908   -0.0633 C   0  0  0  0  0  0  0  0  0  0  0  0
   -3.1874    5.7414   -0.0379 C   0  0  0  0  0  0  0  0  0  0  0  0
   -0.7509    3.0684   -1.1118 C   0  0  0  0  0  0  0  0  0  0  0  0
    0.5933    2.8647   -1.6152 C   0  0  0  0  0  0  0  0  0  0  0  0
    1.4618    1.9499   -0.9659 C   0  0  0  0  0  0  0  0  0  0  0  0
    0.9739    1.2000    0.0831 O   0  0  0  0  0  0  0  0  0  0  0  0
    2.8181    1.7830   -1.2963 C   0  0  0  0  0  0  0  0  0  0  0  0
    3.7078    0.8689   -0.5610 C   0  0  0  0  0  0  0  0  0  0  0  0
    4.0011    1.0801    0.7936 C   0  0  0  0  0  0  0  0  0  0  0  0
    4.8525    0.2148    1.4897 C   0  0  0  0  0  0  0  0  0  0  0  0
    5.4414   -0.8870    0.8526 C   0  0  0  0  0  0  0  0  0  0  0  0
    6.3285   -1.8001    1.5878 C   0  0  0  0  0  0  0  0  0  0  0  0
    7.6536   -2.0150    1.1718 C   0  0  0  0  0  0  0  0  0  0  0  0
    8.5146   -2.8832    1.8682 C   0  0  0  0  0  0  0  0  0  0  0  0
    9.8414   -3.0919    1.4544 C   0  0  0  0  0  0  0  0  0  0  0  0
   10.6812   -3.9573    2.1571 C   0  0  0  0  0  0  0  0  0  0  0  0
   10.2069   -4.6251    3.2820 C   0  0  0  0  0  0  0  0  0  0  0  0
    8.8922   -4.4283    3.7073 C   0  0  0  0  0  0  0  0  0  0  0  0
    8.0354   -3.5602    3.0115 C   0  0  0  0  0  0  0  0  0  0  0  0
    6.7131   -3.3501    3.4273 C   0  0  0  0  0  0  0  0  0  0  0  0
    5.8737   -2.4806    2.7253 C   0  0  0  0  0  0  0  0  0  0  0  0
    5.1507   -1.0959   -0.5030 C   0  0  0  0  0  0  0  0  0  0  0  0
    4.2963   -0.2324   -1.1988 C   0  0  0  0  0  0  0  0  0  0  0  0
    3.3207    2.5293   -2.3645 C   0  0  0  0  0  0  0  0  0  0  0  0
    2.5056    3.3917   -3.1044 C   0  0  0  0  0  0  0  0  0  0  0  0
    1.1383    3.5556   -2.7567 C   0  0  0  0  0  0  0  0  0  0  0  0
    0.3659    4.3761   -3.6179 C   0  0  0  0  0  0  0  0  0  0  0  0
    0.9184    5.0463   -4.7125 C   0  0  0  0  0  0  0  0  0  0  0  0
    2.2666    4.9052   -4.9982 C   0  0  0  0  0  0  0  0  0  0  0  0
    3.0529    4.0775   -4.2021 C   0  0  0  0  0  0  0  0  0  0  0  0
   -1.3257   -1.0870    1.0496 H   0  0  0  0  0  0  0  0  0  0  0  0
   -4.0508    1.1562    1.7912 H   0  0  0  0  0  0  0  0  0  0  0  0
   -5.4375   -0.8401    2.1129 H   0  0  0  0  0  0  0  0  0  0  0  0
   -4.7559   -3.9774   -0.6232 H   0  0  0  0  0  0  0  0  0  0  0  0
   -6.0759   -6.0070   -0.2834 H   0  0  0  0  0  0  0  0  0  0  0  0
   -8.1516   -7.1212    0.5256 H   0  0  0  0  0  0  0  0  0  0  0  0
  -10.3787   -6.9712    1.5697 H   0  0  0  0  0  0  0  0  0  0  0  0
  -11.2831   -4.7704    2.2705 H   0  0  0  0  0  0  0  0  0  0  0  0
   -9.9630   -2.7209    1.9301 H   0  0  0  0  0  0  0  0  0  0  0  0
   -7.9009   -1.6136    1.1234 H   0  0  0  0  0  0  0  0  0  0  0  0
   -5.2018   -1.6794   -2.1095 H   0  0  0  0  0  0  0  0  0  0  0  0
   -3.8163    0.3160   -2.4292 H   0  0  0  0  0  0  0  0  0  0  0  0
   -4.4980    3.4570    0.0490 H   0  0  0  0  0  0  0  0  0  0  0  0
    0.5481    5.5246   -0.9532 H   0  0  0  0  0  0  0  0  0  0  0  0
   -0.4315    7.6785   -0.3966 H   0  0  0  0  0  0  0  0  0  0  0  0
   -2.8352    7.8534    0.1956 H   0  0  0  0  0  0  0  0  0  0  0  0
   -4.2321    5.8345    0.2536 H   0  0  0  0  0  0  0  0  0  0  0  0
    3.5642    1.9262    1.3208 H   0  0  0  0  0  0  0  0  0  0  0  0
    5.0598    0.4138    2.5393 H   0  0  0  0  0  0  0  0  0  0  0  0
    8.0241   -1.4863    0.2950 H   0  0  0  0  0  0  0  0  0  0  0  0
   10.2305   -2.5788    0.5778 H   0  0  0  0  0  0  0  0  0  0  0  0
   11.7049   -4.1085    1.8251 H   0  0  0  0  0  0  0  0  0  0  0  0
   10.8593   -5.2994    3.8302 H   0  0  0  0  0  0  0  0  0  0  0  0
    8.5400   -4.9585    4.5892 H   0  0  0  0  0  0  0  0  0  0  0  0
    6.3214   -3.8638    4.3023 H   0  0  0  0  0  0  0  0  0  0  0  0
    4.8495   -2.3468    3.0683 H   0  0  0  0  0  0  0  0  0  0  0  0
    5.5726   -1.9508   -1.0273 H   0  0  0  0  0  0  0  0  0  0  0  0
    4.0780   -0.4402   -2.2444 H   0  0  0  0  0  0  0  0  0  0  0  0
    4.3715    2.4197   -2.6320 H   0  0  0  0  0  0  0  0  0  0  0  0
   -0.7032    4.4983   -3.4524 H   0  0  0  0  0  0  0  0  0  0  0  0
    0.2880    5.6713   -5.3393 H   0  0  0  0  0  0  0  0  0  0  0  0
    2.7042    5.4223   -5.8476 H   0  0  0  0  0  0  0  0  0  0  0  0
    4.1047    3.9602   -4.4572 H   0  0  0  0  0  0  0  0  0  0  0  0
  1  2  2  0  0  0  0
  2 33  1  0  0  0  0
  2  3  1  0  0  0  0
  4  5  1  0  0  0  0
  4  2  1  0  0  0  0
  5  6  1  0  0  0  0
  6  7  1  0  0  0  0
  6 23  2  0  0  0  0
  7  8  2  0  0  0  0
  8  9  1  0  0  0  0
  8 59  1  0  0  0  0
  9 60  1  0  0  0  0
 10 11  1  0  0  0  0
 10  9  2  0  0  0  0
 11 20  2  0  0  0  0
 12 13  2  0  0  0  0
 12 11  1  0  0  0  0
 13 14  1  0  0  0  0
 14 15  2  0  0  0  0
 14 19  1  0  0  0  0
 15 16  1  0  0  0  0
 16 64  1  0  0  0  0
 16 17  2  0  0  0  0
 17 65  1  0  0  0  0
 18 17  1  0  0  0  0
 18 66  1  0  0  0  0
 19 18  2  0  0  0  0
 20 19  1  0  0  0  0
 20 67  1  0  0  0  0
 21 10  1  0  0  0  0
 22 21  2  0  0  0  0
 22  7  1  0  0  0  0
 23 70  1  0  0  0  0
 24 23  1  0  0  0  0
 24 29  2  0  0  0  0
 25 26  2  0  0  0  0
 25 24  1  0  0  0  0
 26 27  1  0  0  0  0
 27 72  1  0  0  0  0
 27 28  2  0  0  0  0
 28 29  1  0  0  0  0
 28 73  1  0  0  0  0
 29 74  1  0  0  0  0
 30  5  2  0  0  0  0
 30 25  1  0  0  0  0
 31 30  1  0  0  0  0
 31 32  2  0  0  0  0
 32 33  1  0  0  0  0
 34 32  1  0  0  0  0
 34 35  1  0  0  0  0
 35 36  1  0  0  0  0
 36 75  1  0  0  0  0
 36 37  2  0  0  0  0
 37 76  1  0  0  0  0
 38 37  1  0  0  0  0
 38 39  1  0  0  0  0
 39 48  1  0  0  0  0
 40 39  2  0  0  0  0
 40 41  1  0  0  0  0
 41 46  1  0  0  0  0
 42 41  2  0  0  0  0
 42 43  1  0  0  0  0
 43 44  2  0  0  0  0
 44 45  1  0  0  0  0
 44 80  1  0  0  0  0
 45 81  1  0  0  0  0
 46 47  1  0  0  0  0
 46 45  2  0  0  0  0
 47 82  1  0  0  0  0
 48 83  1  0  0  0  0
 48 47  2  0  0  0  0
 49 38  2  0  0  0  0
 50 35  2  0  0  0  0
 50 49  1  0  0  0  0
 51 34  2  0  0  0  0
 52 53  1  0  0  0  0
 52 51  1  0  0  0  0
 53 31  1  0  0  0  0
 54 87  1  0  0  0  0
 54 53  2  0  0  0  0
 55 54  1  0  0  0  0
 56 55  2  0  0  0  0
 56 57  1  0  0  0  0
 57 52  2  0  0  0  0
 58  3  1  0  0  0  0
 61 12  1  0  0  0  0
 62 13  1  0  0  0  0
 63 15  1  0  0  0  0
 68 21  1  0  0  0  0
 69 22  1  0  0  0  0
 71 26  1  0  0  0  0
 77 40  1  0  0  0  0
 78 42  1  0  0  0  0
 79 43  1  0  0  0  0
 84 49  1  0  0  0  0
 85 50  1  0  0  0  0
 86 51  1  0  0  0  0
 88 55  1  0  0  0  0
 89 56  1  0  0  0  0
 90 57  1  0  0  0  0
M  END
$$$$
