O=P1(O)OC2=C(C3=C(C=CC=C4)C4=CC5=C3C=CC=C5)C=C6C(C=CC=C6)=C2C7=C(O1)[C@@]([C@@]8=C(C=CC=C9)C9=CC%10=C8C=CC=C%10)=CC%11=C7C=CC=C%11
 OpenBabel09032010383D

 82 92  0  0  0  0  0  0  0  0999 V2000
   -0.6050    2.7769    0.0480 O   0  0  0  0  0  0  0  0  0  0  0  0
   -0.0921    1.4644    0.5480 P   0  0  0  0  0  0  0  0  0  0  0  0
    0.5063    1.5931    2.0339 O   0  0  0  0  0  0  0  0  0  0  0  0
    1.1326    0.8532   -0.3003 O   0  0  0  0  0  0  0  0  0  0  0  0
    1.5552   -0.4345   -0.0633 C   0  0  0  0  0  0  0  0  0  0  0  0
    2.8741   -0.5814    0.4074 C   0  0  0  0  0  0  0  0  0  0  0  0
    3.7567    0.5829    0.6692 C   0  0  0  0  0  0  0  0  0  0  0  0
    4.4710    1.1926   -0.4131 C   0  0  0  0  0  0  0  0  0  0  0  0
    4.3973    0.7509   -1.7585 C   0  0  0  0  0  0  0  0  0  0  0  0
    5.1107    1.3747   -2.7847 C   0  0  0  0  0  0  0  0  0  0  0  0
    5.9238    2.4605   -2.4977 C   0  0  0  0  0  0  0  0  0  0  0  0
    6.0210    2.9191   -1.1860 C   0  0  0  0  0  0  0  0  0  0  0  0
    5.3074    2.2997   -0.1449 C   0  0  0  0  0  0  0  0  0  0  0  0
    5.4271    2.7813    1.1638 C   0  0  0  0  0  0  0  0  0  0  0  0
    4.7408    2.1952    2.2333 C   0  0  0  0  0  0  0  0  0  0  0  0
    3.8980    1.0847    2.0041 C   0  0  0  0  0  0  0  0  0  0  0  0
    3.2323    0.5381    3.1305 C   0  0  0  0  0  0  0  0  0  0  0  0
    3.3866    1.0661    4.4140 C   0  0  0  0  0  0  0  0  0  0  0  0
    4.2188    2.1561    4.6143 C   0  0  0  0  0  0  0  0  0  0  0  0
    4.8917    2.7156    3.5307 C   0  0  0  0  0  0  0  0  0  0  0  0
    3.3602   -1.8727    0.6186 C   0  0  0  0  0  0  0  0  0  0  0  0
    2.5534   -2.9923    0.4118 C   0  0  0  0  0  0  0  0  0  0  0  0
    1.2254   -2.8370   -0.0698 C   0  0  0  0  0  0  0  0  0  0  0  0
    0.4521   -4.0232   -0.1553 C   0  0  0  0  0  0  0  0  0  0  0  0
    0.9693   -5.2853    0.1500 C   0  0  0  0  0  0  0  0  0  0  0  0
    2.2838   -5.4071    0.5696 C   0  0  0  0  0  0  0  0  0  0  0  0
    3.0685   -4.2660    0.7048 C   0  0  0  0  0  0  0  0  0  0  0  0
    0.7131   -1.5258   -0.3910 C   0  0  0  0  0  0  0  0  0  0  0  0
   -0.5730   -1.3012   -1.0243 C   0  0  0  0  0  0  0  0  0  0  0  0
   -1.5145   -0.4238   -0.4332 C   0  0  0  0  0  0  0  0  0  0  0  0
   -1.1651    0.2744    0.6984 O   0  0  0  0  0  0  0  0  0  0  0  0
   -2.8409   -0.2874   -0.8792 C   0  0  0  0  0  0  0  0  0  0  0  0
   -3.8338    0.5580   -0.1707 C   0  0  0  0  0  0  0  0  0  0  0  0
   -4.1231    1.8769   -0.6493 C   0  0  0  0  0  0  0  0  0  0  0  0
   -3.4896    2.4693   -1.7705 C   0  0  0  0  0  0  0  0  0  0  0  0
   -3.8047    3.7589   -2.2056 C   0  0  0  0  0  0  0  0  0  0  0  0
   -4.7647    4.4990   -1.5324 C   0  0  0  0  0  0  0  0  0  0  0  0
   -5.4026    3.9493   -0.4232 C   0  0  0  0  0  0  0  0  0  0  0  0
   -5.0926    2.6532    0.0252 C   0  0  0  0  0  0  0  0  0  0  0  0
   -5.7464    2.1308    1.1471 C   0  0  0  0  0  0  0  0  0  0  0  0
   -5.4737    0.8464    1.6312 C   0  0  0  0  0  0  0  0  0  0  0  0
   -4.5158    0.0385    0.9788 C   0  0  0  0  0  0  0  0  0  0  0  0
   -4.2934   -1.2558    1.5146 C   0  0  0  0  0  0  0  0  0  0  0  0
   -4.9763   -1.7229    2.6399 C   0  0  0  0  0  0  0  0  0  0  0  0
   -5.9092   -0.9101    3.2652 C   0  0  0  0  0  0  0  0  0  0  0  0
   -6.1561    0.3655    2.7629 C   0  0  0  0  0  0  0  0  0  0  0  0
   -3.2310   -1.0045   -2.0124 C   0  0  0  0  0  0  0  0  0  0  0  0
   -2.3273   -1.8103   -2.7084 C   0  0  0  0  0  0  0  0  0  0  0  0
   -0.9934   -1.9540   -2.2409 C   0  0  0  0  0  0  0  0  0  0  0  0
   -0.1240   -2.7207   -3.0585 C   0  0  0  0  0  0  0  0  0  0  0  0
   -0.5544   -3.3601   -4.2246 C   0  0  0  0  0  0  0  0  0  0  0  0
   -1.8741   -3.2398   -4.6285 C   0  0  0  0  0  0  0  0  0  0  0  0
   -2.7525   -2.4637   -3.8777 C   0  0  0  0  0  0  0  0  0  0  0  0
    1.0367    2.4058    2.1233 H   0  0  0  0  0  0  0  0  0  0  0  0
    3.7708   -0.0967   -2.0288 H   0  0  0  0  0  0  0  0  0  0  0  0
    5.0253    1.0093   -3.8047 H   0  0  0  0  0  0  0  0  0  0  0  0
    6.4807    2.9513   -3.2909 H   0  0  0  0  0  0  0  0  0  0  0  0
    6.6646    3.7725   -0.9812 H   0  0  0  0  0  0  0  0  0  0  0  0
    6.0756    3.6356    1.3551 H   0  0  0  0  0  0  0  0  0  0  0  0
    2.5557   -0.3079    3.0178 H   0  0  0  0  0  0  0  0  0  0  0  0
    2.8498    0.6235    5.2491 H   0  0  0  0  0  0  0  0  0  0  0  0
    4.3463    2.5713    5.6105 H   0  0  0  0  0  0  0  0  0  0  0  0
    5.5423    3.5698    3.7086 H   0  0  0  0  0  0  0  0  0  0  0  0
    4.3811   -1.9957    0.9798 H   0  0  0  0  0  0  0  0  0  0  0  0
   -0.5941   -3.9785   -0.4524 H   0  0  0  0  0  0  0  0  0  0  0  0
    0.3367   -6.1649    0.0638 H   0  0  0  0  0  0  0  0  0  0  0  0
    2.6957   -6.3827    0.8104 H   0  0  0  0  0  0  0  0  0  0  0  0
    4.0913   -4.3799    1.0601 H   0  0  0  0  0  0  0  0  0  0  0  0
   -2.7172    1.9331   -2.3176 H   0  0  0  0  0  0  0  0  0  0  0  0
   -3.2881    4.1821   -3.0628 H   0  0  0  0  0  0  0  0  0  0  0  0
   -5.0107    5.5043   -1.8622 H   0  0  0  0  0  0  0  0  0  0  0  0
   -6.1475    4.5480    0.0969 H   0  0  0  0  0  0  0  0  0  0  0  0
   -6.4880    2.7425    1.6589 H   0  0  0  0  0  0  0  0  0  0  0  0
   -3.5669   -1.9247    1.0581 H   0  0  0  0  0  0  0  0  0  0  0  0
   -4.7713   -2.7189    3.0229 H   0  0  0  0  0  0  0  0  0  0  0  0
   -6.4445   -1.2646    4.1416 H   0  0  0  0  0  0  0  0  0  0  0  0
   -6.8923    0.9887    3.2667 H   0  0  0  0  0  0  0  0  0  0  0  0
   -4.2581   -0.9077   -2.3643 H   0  0  0  0  0  0  0  0  0  0  0  0
    0.9281   -2.8230   -2.7990 H   0  0  0  0  0  0  0  0  0  0  0  0
    0.1483   -3.9444   -4.8131 H   0  0  0  0  0  0  0  0  0  0  0  0
   -2.2185   -3.7323   -5.5336 H   0  0  0  0  0  0  0  0  0  0  0  0
   -3.7797   -2.3615   -4.2240 H   0  0  0  0  0  0  0  0  0  0  0  0
  1  2  2  0  0  0  0
  2 31  1  0  0  0  0
  2  3  1  0  0  0  0
  3 54  1  0  0  0  0
  4  5  1  0  0  0  0
  4  2  1  0  0  0  0
  5  6  2  0  0  0  0
  6 21  1  0  0  0  0
  6  7  1  0  0  0  0
  7 16  2  0  0  0  0
  8 13  1  0  0  0  0
  8  7  1  0  0  0  0
  9  8  2  0  0  0  0
 10 11  2  0  0  0  0
 10  9  1  0  0  0  0
 11 12  1  0  0  0  0
 12 58  1  0  0  0  0
 12 13  2  0  0  0  0
 13 14  1  0  0  0  0
 14 59  1  0  0  0  0
 14 15  2  0  0  0  0
 15 20  1  0  0  0  0
 16 15  1  0  0  0  0
 16 17  1  0  0  0  0
 17 18  2  0  0  0  0
 18 19  1  0  0  0  0
 18 61  1  0  0  0  0
 19 62  1  0  0  0  0
 20 63  1  0  0  0  0
 20 19  2  0  0  0  0
 21 64  1  0  0  0  0
 22 21  2  0  0  0  0
 22 27  1  0  0  0  0
 23 22  1  0  0  0  0
 24 23  1  0  0  0  0
 24 25  2  0  0  0  0
 25 26  1  0  0  0  0
 26 27  2  0  0  0  0
 26 67  1  0  0  0  0
 27 68  1  0  0  0  0
 28 23  2  0  0  0  0
 28  5  1  0  0  0  0
 29 30  2  0  0  0  0
 29 28  1  0  0  0  0
 30 31  1  0  0  0  0
 32 30  1  0  0  0  0
 32 33  1  0  0  0  0
 33 42  1  0  0  0  0
 34 33  2  0  0  0  0
 34 39  1  0  0  0  0
 35 34  1  0  0  0  0
 36 35  2  0  0  0  0
 36 37  1  0  0  0  0
 37 38  2  0  0  0  0
 38 39  1  0  0  0  0
 38 72  1  0  0  0  0
 39 40  2  0  0  0  0
 40 41  1  0  0  0  0
 40 73  1  0  0  0  0
 41 46  2  0  0  0  0
 42 43  2  0  0  0  0
 42 41  1  0  0  0  0
 43 44  1  0  0  0  0
 44 75  1  0  0  0  0
 44 45  2  0  0  0  0
 45 76  1  0  0  0  0
 46 45  1  0  0  0  0
 46 77  1  0  0  0  0
 47 32  2  0  0  0  0
 48 49  1  0  0  0  0
 48 47  1  0  0  0  0
 49 29  1  0  0  0  0
 50 79  1  0  0  0  0
 50 49  2  0  0  0  0
 51 50  1  0  0  0  0
 52 51  2  0  0  0  0
 52 53  1  0  0  0  0
 53 48  2  0  0  0  0
 55  9  1  0  0  0  0
 56 10  1  0  0  0  0
 57 11  1  0  0  0  0
 60 17  1  0  0  0  0
 65 24  1  0  0  0  0
 66 25  1  0  0  0  0
 69 35  1  0  0  0  0
 70 36  1  0  0  0  0
 71 37  1  0  0  0  0
 74 43  1  0  0  0  0
 78 47  1  0  0  0  0
 80 51  1  0  0  0  0
 81 52  1  0  0  0  0
 82 53  1  0  0  0  0
M  END
$$$$
