O=P1(O)OC2=C(CC3=C(C=CC=C4)C4=CC5=C3C=CC=C5)C=C6C(C=CC=C6)=C2C7=C(O1)C(CC8=C(C=CC=C9)C9=CC%10=C8C=CC=C%10)=CC%11=C7C=CC=C%11
 OpenBabel09032010373D

 88 98  0  0  0  0  0  0  0  0999 V2000
    0.6238    2.1333   -2.3015 O   0  0  0  0  0  0  0  0  0  0  0  0
   -0.1064    0.9841   -1.6804 P   0  0  0  0  0  0  0  0  0  0  0  0
   -1.1455    0.3652   -2.7425 O   0  0  0  0  0  0  0  0  0  0  0  0
   -1.0187    1.3568   -0.4091 O   0  0  0  0  0  0  0  0  0  0  0  0
   -1.5190    0.3506    0.3867 C   0  0  0  0  0  0  0  0  0  0  0  0
   -2.9221    0.2594    0.4578 C   0  0  0  0  0  0  0  0  0  0  0  0
   -3.7890    1.2223   -0.3371 C   0  0  0  0  0  0  0  0  0  0  0  0
   -5.2536    0.8331   -0.5405 C   0  0  0  0  0  0  0  0  0  0  0  0
   -6.2730    1.3970    0.2978 C   0  0  0  0  0  0  0  0  0  0  0  0
   -6.0311    2.2719    1.3882 C   0  0  0  0  0  0  0  0  0  0  0  0
   -7.0663    2.8017    2.1646 C   0  0  0  0  0  0  0  0  0  0  0  0
   -8.3811    2.4697    1.8811 C   0  0  0  0  0  0  0  0  0  0  0  0
   -8.6555    1.6021    0.8280 C   0  0  0  0  0  0  0  0  0  0  0  0
   -7.6225    1.0606    0.0425 C   0  0  0  0  0  0  0  0  0  0  0  0
   -7.9398    0.1770   -0.9948 C   0  0  0  0  0  0  0  0  0  0  0  0
   -6.9538   -0.4137   -1.7920 C   0  0  0  0  0  0  0  0  0  0  0  0
   -5.5930   -0.1031   -1.5744 C   0  0  0  0  0  0  0  0  0  0  0  0
   -4.6484   -0.7581   -2.4047 C   0  0  0  0  0  0  0  0  0  0  0  0
   -5.0293   -1.6585   -3.4032 C   0  0  0  0  0  0  0  0  0  0  0  0
   -6.3717   -1.9361   -3.6053 C   0  0  0  0  0  0  0  0  0  0  0  0
   -7.3266   -1.3180   -2.8025 C   0  0  0  0  0  0  0  0  0  0  0  0
   -3.4689   -0.7007    1.3099 C   0  0  0  0  0  0  0  0  0  0  0  0
   -2.6595   -1.5913    2.0208 C   0  0  0  0  0  0  0  0  0  0  0  0
   -1.2454   -1.5000    1.9324 C   0  0  0  0  0  0  0  0  0  0  0  0
   -0.5122   -2.5091    2.6104 C   0  0  0  0  0  0  0  0  0  0  0  0
   -1.1263   -3.5014    3.3799 C   0  0  0  0  0  0  0  0  0  0  0  0
   -2.5067   -3.5327    3.4874 C   0  0  0  0  0  0  0  0  0  0  0  0
   -3.2671   -2.5865    2.8062 C   0  0  0  0  0  0  0  0  0  0  0  0
   -0.6322   -0.4564    1.1482 C   0  0  0  0  0  0  0  0  0  0  0  0
    0.7998   -0.2163    1.1296 C   0  0  0  0  0  0  0  0  0  0  0  0
    1.5058   -0.1896   -0.0993 C   0  0  0  0  0  0  0  0  0  0  0  0
    0.8005   -0.2832   -1.2764 O   0  0  0  0  0  0  0  0  0  0  0  0
    2.9066   -0.1336   -0.2065 C   0  0  0  0  0  0  0  0  0  0  0  0
    3.5653   -0.2318   -1.5726 C   0  0  0  0  0  0  0  0  0  0  0  0
    5.0580    0.0876   -1.6490 C   0  0  0  0  0  0  0  0  0  0  0  0
    6.0240   -0.9671   -1.5223 C   0  0  0  0  0  0  0  0  0  0  0  0
    5.7044   -2.3273   -1.2776 C   0  0  0  0  0  0  0  0  0  0  0  0
    6.6853   -3.3169   -1.1668 C   0  0  0  0  0  0  0  0  0  0  0  0
    8.0232   -2.9794   -1.2940 C   0  0  0  0  0  0  0  0  0  0  0  0
    8.3756   -1.6521   -1.5219 C   0  0  0  0  0  0  0  0  0  0  0  0
    7.3970   -0.6477   -1.6305 C   0  0  0  0  0  0  0  0  0  0  0  0
    7.7908    0.6784   -1.8391 C   0  0  0  0  0  0  0  0  0  0  0  0
    6.8619    1.7215   -1.9285 C   0  0  0  0  0  0  0  0  0  0  0  0
    5.4792    1.4473   -1.8262 C   0  0  0  0  0  0  0  0  0  0  0  0
    4.5998    2.5580   -1.9007 C   0  0  0  0  0  0  0  0  0  0  0  0
    5.0622    3.8641   -2.0822 C   0  0  0  0  0  0  0  0  0  0  0  0
    6.4219    4.1048   -2.1925 C   0  0  0  0  0  0  0  0  0  0  0  0
    7.3147    3.0394   -2.1144 C   0  0  0  0  0  0  0  0  0  0  0  0
    3.6399   -0.0382    0.9766 C   0  0  0  0  0  0  0  0  0  0  0  0
    3.0103    0.0415    2.2230 C   0  0  0  0  0  0  0  0  0  0  0  0
    1.5954   -0.0275    2.3165 C   0  0  0  0  0  0  0  0  0  0  0  0
    1.0434    0.1461    3.6122 C   0  0  0  0  0  0  0  0  0  0  0  0
    1.8351    0.3133    4.7516 C   0  0  0  0  0  0  0  0  0  0  0  0
    3.2151    0.3316    4.6340 C   0  0  0  0  0  0  0  0  0  0  0  0
    3.7971    0.2024    3.3764 C   0  0  0  0  0  0  0  0  0  0  0  0
   -0.9199    0.6882   -3.6350 H   0  0  0  0  0  0  0  0  0  0  0  0
   -3.7088    2.2130    0.1225 H   0  0  0  0  0  0  0  0  0  0  0  0
   -3.3545    1.3753   -1.3332 H   0  0  0  0  0  0  0  0  0  0  0  0
   -5.0200    2.5527    1.6701 H   0  0  0  0  0  0  0  0  0  0  0  0
   -6.8365    3.4696    2.9908 H   0  0  0  0  0  0  0  0  0  0  0  0
   -9.1914    2.8773    2.4792 H   0  0  0  0  0  0  0  0  0  0  0  0
   -9.6937    1.3457    0.6250 H   0  0  0  0  0  0  0  0  0  0  0  0
   -8.9849   -0.0705   -1.1775 H   0  0  0  0  0  0  0  0  0  0  0  0
   -3.5821   -0.5890   -2.2782 H   0  0  0  0  0  0  0  0  0  0  0  0
   -4.2708   -2.1414   -4.0135 H   0  0  0  0  0  0  0  0  0  0  0  0
   -6.6771   -2.6351   -4.3788 H   0  0  0  0  0  0  0  0  0  0  0  0
   -8.3756   -1.5539   -2.9694 H   0  0  0  0  0  0  0  0  0  0  0  0
   -4.5507   -0.7865    1.4041 H   0  0  0  0  0  0  0  0  0  0  0  0
    0.5732   -2.5455    2.5371 H   0  0  0  0  0  0  0  0  0  0  0  0
   -0.5190   -4.2470    3.8862 H   0  0  0  0  0  0  0  0  0  0  0  0
   -2.9946   -4.2996    4.0827 H   0  0  0  0  0  0  0  0  0  0  0  0
   -4.3525   -2.6415    2.8805 H   0  0  0  0  0  0  0  0  0  0  0  0
    3.3767   -1.2338   -1.9752 H   0  0  0  0  0  0  0  0  0  0  0  0
    3.0391    0.4198   -2.2807 H   0  0  0  0  0  0  0  0  0  0  0  0
    4.6733   -2.6471   -1.1514 H   0  0  0  0  0  0  0  0  0  0  0  0
    6.3963   -4.3475   -0.9778 H   0  0  0  0  0  0  0  0  0  0  0  0
    8.7922   -3.7423   -1.2104 H   0  0  0  0  0  0  0  0  0  0  0  0
    9.4323   -1.4047   -1.6099 H   0  0  0  0  0  0  0  0  0  0  0  0
    8.8533    0.9075   -1.9196 H   0  0  0  0  0  0  0  0  0  0  0  0
    3.5231    2.4318   -1.8092 H   0  0  0  0  0  0  0  0  0  0  0  0
    4.3525    4.6859   -2.1336 H   0  0  0  0  0  0  0  0  0  0  0  0
    6.7891    5.1173   -2.3332 H   0  0  0  0  0  0  0  0  0  0  0  0
    8.3792    3.2481   -2.1962 H   0  0  0  0  0  0  0  0  0  0  0  0
    4.7275    0.0025    0.9386 H   0  0  0  0  0  0  0  0  0  0  0  0
   -0.0359    0.1660    3.7533 H   0  0  0  0  0  0  0  0  0  0  0  0
    1.3667    0.4344    5.7247 H   0  0  0  0  0  0  0  0  0  0  0  0
    3.8395    0.4630    5.5134 H   0  0  0  0  0  0  0  0  0  0  0  0
    4.8827    0.2429    3.3008 H   0  0  0  0  0  0  0  0  0  0  0  0
  1  2  2  0  0  0  0
  2 32  1  0  0  0  0
  2  4  1  0  0  0  0
  3  2  1  0  0  0  0
  4  5  1  0  0  0  0
  5  6  2  0  0  0  0
  5 29  1  0  0  0  0
  6 22  1  0  0  0  0
  7 57  1  0  0  0  0
  7  6  1  0  0  0  0
  8  7  1  0  0  0  0
  8  9  2  0  0  0  0
  9 10  1  0  0  0  0
 10 59  1  0  0  0  0
 10 11  2  0  0  0  0
 11 60  1  0  0  0  0
 12 11  1  0  0  0  0
 12 61  1  0  0  0  0
 13 12  2  0  0  0  0
 14  9  1  0  0  0  0
 14 13  1  0  0  0  0
 15 14  2  0  0  0  0
 16 17  1  0  0  0  0
 16 15  1  0  0  0  0
 17  8  1  0  0  0  0
 18 64  1  0  0  0  0
 18 17  2  0  0  0  0
 19 18  1  0  0  0  0
 20 19  2  0  0  0  0
 20 21  1  0  0  0  0
 21 16  2  0  0  0  0
 22 68  1  0  0  0  0
 22 23  2  0  0  0  0
 23 28  1  0  0  0  0
 24 23  1  0  0  0  0
 24 25  1  0  0  0  0
 25 26  2  0  0  0  0
 26 27  1  0  0  0  0
 26 70  1  0  0  0  0
 27 71  1  0  0  0  0
 28 72  1  0  0  0  0
 28 27  2  0  0  0  0
 29 24  2  0  0  0  0
 30 29  1  0  0  0  0
 30 51  2  0  0  0  0
 31 30  1  0  0  0  0
 32 31  1  0  0  0  0
 33 31  2  0  0  0  0
 33 49  1  0  0  0  0
 34 33  1  0  0  0  0
 35 34  1  0  0  0  0
 35 36  1  0  0  0  0
 36 37  1  0  0  0  0
 37 38  2  0  0  0  0
 37 75  1  0  0  0  0
 38 76  1  0  0  0  0
 39 77  1  0  0  0  0
 39 38  1  0  0  0  0
 40 39  2  0  0  0  0
 41 36  2  0  0  0  0
 41 40  1  0  0  0  0
 42 41  1  0  0  0  0
 43 42  2  0  0  0  0
 43 44  1  0  0  0  0
 44 35  2  0  0  0  0
 45 44  1  0  0  0  0
 45 80  1  0  0  0  0
 46 45  2  0  0  0  0
 47 48  2  0  0  0  0
 47 46  1  0  0  0  0
 48 43  1  0  0  0  0
 49 50  2  0  0  0  0
 50 51  1  0  0  0  0
 50 55  1  0  0  0  0
 51 52  1  0  0  0  0
 52 85  1  0  0  0  0
 52 53  2  0  0  0  0
 53 86  1  0  0  0  0
 54 53  1  0  0  0  0
 54 87  1  0  0  0  0
 55 54  2  0  0  0  0
 56  3  1  0  0  0  0
 58  7  1  0  0  0  0
 62 13  1  0  0  0  0
 63 15  1  0  0  0  0
 65 19  1  0  0  0  0
 66 20  1  0  0  0  0
 67 21  1  0  0  0  0
 69 25  1  0  0  0  0
 73 34  1  0  0  0  0
 74 34  1  0  0  0  0
 78 40  1  0  0  0  0
 79 42  1  0  0  0  0
 81 46  1  0  0  0  0
 82 47  1  0  0  0  0
 83 48  1  0  0  0  0
 84 49  1  0  0  0  0
 88 55  1  0  0  0  0
M  END
$$$$
