O=P1(O)OC2=C(C3=CC=C(S(F)(F)(F)(F)F)C=C3)C=C4C(C=CC=C4)=C2C5=C(O1)C(C6=CC=C(S(F)(F)(F)(F)F)C=C6)=CC7=C5C=CC=C7
 OpenBabel09032010373D

 68 66  0  0  0  0  0  0  0  0999 V2000
   -0.5749   -2.8216   -0.7769 O   0  0  0  0  0  0  0  0  0  0  0  0
   -0.1380   -1.4582   -1.2360 P   0  0  0  0  0  0  0  0  0  0  0  0
    0.2262   -1.5582   -2.8569 O   0  0  0  0  0  0  0  0  0  0  0  0
   -1.4035   -0.2610   -1.0174 O   0  0  0  0  0  0  0  0  0  0  0  0
   -1.6003    0.3680    0.1933 C   0  0  0  0  0  0  0  0  0  0  0  0
   -2.8412    0.4497    0.7493 C   0  0  0  0  0  0  0  0  0  0  0  0
   -3.9717   -0.1239   -0.0088 C   0  0  0  0  0  0  0  0  0  0  0  0
   -4.1230    0.1194   -1.3466 C   0  0  0  0  0  0  0  0  0  0  0  0
   -5.2318   -0.4769   -1.9657 C   0  0  0  0  0  0  0  0  0  0  0  0
   -6.1583   -1.2714   -1.3299 C   0  0  0  0  0  0  0  0  0  0  0  0
   -7.8236   -1.9127   -2.2835 S   0  0  0  0  0  0  0  0  0  0  0  0
   -9.4622   -2.7392   -1.2261 F   0  0  0  0  0  0  0  0  0  0  0  0
   -6.3816   -3.8623   -3.1541 F   0  0  0  0  0  0  0  0  0  0  0  0
   -7.8340   -2.4382   -4.4437 F   0  0  0  0  0  0  0  0  0  0  0  0
   -7.9406   -4.4772   -1.4677 F   0  0  0  0  0  0  0  0  0  0  0  0
   -8.8977   -1.0481   -2.7954 F   0  0  0  0  0  0  0  0  0  0  0  0
   -5.9547   -1.4719   -0.0300 C   0  0  0  0  0  0  0  0  0  0  0  0
   -4.8616   -0.9052    0.6602 C   0  0  0  0  0  0  0  0  0  0  0  0
   -3.0672    1.0468    1.9836 C   0  0  0  0  0  0  0  0  0  0  0  0
   -2.0079    1.5760    2.6940 C   0  0  0  0  0  0  0  0  0  0  0  0
   -0.6781    1.5376    2.1910 C   0  0  0  0  0  0  0  0  0  0  0  0
    0.4092    1.8752    2.9570 C   0  0  0  0  0  0  0  0  0  0  0  0
    0.2077    2.2981    4.2592 C   0  0  0  0  0  0  0  0  0  0  0  0
   -1.0797    2.3671    4.7653 C   0  0  0  0  0  0  0  0  0  0  0  0
   -2.1593    2.0098    3.9934 C   0  0  0  0  0  0  0  0  0  0  0  0
   -0.5712    0.9533    0.9775 C   0  0  0  0  0  0  0  0  0  0  0  0
    0.7819    1.2515    0.4262 C   0  0  0  0  0  0  0  0  0  0  0  0
    1.6743    0.2414   -0.0127 C   0  0  0  0  0  0  0  0  0  0  0  0
    1.2834   -1.0688   -0.2672 O   0  0  0  0  0  0  0  0  0  0  0  0
    2.9551    0.6253   -0.2047 C   0  0  0  0  0  0  0  0  0  0  0  0
    3.9191   -0.4020   -0.6484 C   0  0  0  0  0  0  0  0  0  0  0  0
    4.7894   -0.1412   -1.6812 C   0  0  0  0  0  0  0  0  0  0  0  0
    5.6776   -1.1501   -2.0503 C   0  0  0  0  0  0  0  0  0  0  0  0
    5.7572   -2.3927   -1.4627 C   0  0  0  0  0  0  0  0  0  0  0  0
    7.1442   -3.7410   -1.9805 S   0  0  0  0  0  0  0  0  0  0  0  0
    6.0371   -6.0063   -1.9944 F   0  0  0  0  0  0  0  0  0  0  0  0
    8.2178   -3.8196   -3.8586 F   0  0  0  0  0  0  0  0  0  0  0  0
    7.7385   -5.2956   -0.5856 F   0  0  0  0  0  0  0  0  0  0  0  0
    5.9014   -4.4902   -3.8155 F   0  0  0  0  0  0  0  0  0  0  0  0
    8.7281   -3.3600   -1.5566 F   0  0  0  0  0  0  0  0  0  0  0  0
    4.8933   -2.6094   -0.4624 C   0  0  0  0  0  0  0  0  0  0  0  0
    3.9788   -1.6336   -0.0486 C   0  0  0  0  0  0  0  0  0  0  0  0
    3.3541    1.9447    0.0109 C   0  0  0  0  0  0  0  0  0  0  0  0
    2.4253    2.9029    0.4243 C   0  0  0  0  0  0  0  0  0  0  0  0
    1.0645    2.5503    0.6423 C   0  0  0  0  0  0  0  0  0  0  0  0
    0.0945    3.5043    0.8526 C   0  0  0  0  0  0  0  0  0  0  0  0
    0.4526    4.8387    0.8833 C   0  0  0  0  0  0  0  0  0  0  0  0
    1.7782    5.1934    0.6961 C   0  0  0  0  0  0  0  0  0  0  0  0
    2.7466    4.2398    0.4685 C   0  0  0  0  0  0  0  0  0  0  0  0
    0.4514   -2.4882   -3.1112 H   0  0  0  0  0  0  0  0  0  0  0  0
   -3.4730    0.7122   -1.9123 H   0  0  0  0  0  0  0  0  0  0  0  0
   -5.4499   -0.3586   -3.0368 H   0  0  0  0  0  0  0  0  0  0  0  0
   -6.6436   -2.0843    0.5187 H   0  0  0  0  0  0  0  0  0  0  0  0
   -4.8248   -1.1514    1.6979 H   0  0  0  0  0  0  0  0  0  0  0  0
   -4.0670    1.0912    2.3747 H   0  0  0  0  0  0  0  0  0  0  0  0
    1.4520    1.7493    2.7517 H   0  0  0  0  0  0  0  0  0  0  0  0
    1.0382    2.5777    4.8822 H   0  0  0  0  0  0  0  0  0  0  0  0
   -1.2578    2.7145    5.7799 H   0  0  0  0  0  0  0  0  0  0  0  0
   -3.1827    2.0629    4.4011 H   0  0  0  0  0  0  0  0  0  0  0  0
    4.8328    0.7726   -2.2154 H   0  0  0  0  0  0  0  0  0  0  0  0
    6.4105   -1.0418   -2.8686 H   0  0  0  0  0  0  0  0  0  0  0  0
    4.9048   -3.5598    0.0351 H   0  0  0  0  0  0  0  0  0  0  0  0
    3.3386   -1.9166    0.7611 H   0  0  0  0  0  0  0  0  0  0  0  0
    4.3762    2.2132   -0.1437 H   0  0  0  0  0  0  0  0  0  0  0  0
   -0.9701    3.3937    0.8798 H   0  0  0  0  0  0  0  0  0  0  0  0
   -0.2777    5.6095    1.0540 H   0  0  0  0  0  0  0  0  0  0  0  0
    2.0774    6.2416    0.7364 H   0  0  0  0  0  0  0  0  0  0  0  0
    3.7907    4.5051    0.3168 H   0  0  0  0  0  0  0  0  0  0  0  0
  2  4  1  0  0  0  0
  2  1  2  0  0  0  0
  2 29  1  0  0  0  0
  3  2  1  0  0  0  0
  4  5  1  0  0  0  0
  5  6  2  0  0  0  0
  5 26  1  0  0  0  0
  6 19  1  0  0  0  0
  7 18  2  0  0  0  0
  7  6  1  0  0  0  0
  8  7  1  0  0  0  0
  9  8  2  0  0  0  0
  9 10  1  0  0  0  0
 10 17  2  0  0  0  0
 11 10  1  0  0  0  0
 16 11  1  0  0  0  0
 17 53  1  0  0  0  0
 17 18  1  0  0  0  0
 18 54  1  0  0  0  0
 19 55  1  0  0  0  0
 19 20  2  0  0  0  0
 20 25  1  0  0  0  0
 21 20  1  0  0  0  0
 21 22  1  0  0  0  0
 22 23  2  0  0  0  0
 23 24  1  0  0  0  0
 23 57  1  0  0  0  0
 24 58  1  0  0  0  0
 25 59  1  0  0  0  0
 25 24  2  0  0  0  0
 26 21  2  0  0  0  0
 27 45  2  0  0  0  0
 27 26  1  0  0  0  0
 28 27  1  0  0  0  0
 29 28  1  0  0  0  0
 30 28  2  0  0  0  0
 30 43  1  0  0  0  0
 31 30  1  0  0  0  0
 31 42  2  0  0  0  0
 32 31  1  0  0  0  0
 33 32  2  0  0  0  0
 33 34  1  0  0  0  0
 34 41  2  0  0  0  0
 35 40  1  0  0  0  0
 35 34  1  0  0  0  0
 41 42  1  0  0  0  0
 41 62  1  0  0  0  0
 42 63  1  0  0  0  0
 43 44  2  0  0  0  0
 44 49  1  0  0  0  0
 44 45  1  0  0  0  0
 45 46  1  0  0  0  0
 46 65  1  0  0  0  0
 46 47  2  0  0  0  0
 47 66  1  0  0  0  0
 48 67  1  0  0  0  0
 48 47  1  0  0  0  0
 49 48  2  0  0  0  0
 50  3  1  0  0  0  0
 51  8  1  0  0  0  0
 52  9  1  0  0  0  0
 56 22  1  0  0  0  0
 60 32  1  0  0  0  0
 61 33  1  0  0  0  0
 64 43  1  0  0  0  0
 68 49  1  0  0  0  0
M  RAD  8  12   2  13   2  14   2  15   2  36   2  37   2  38   2  39   2
M  END
$$$$
