O=P1(O)OC2=C([Si](C3=CC=C(C(C)(C)C)C=C3)(C4=CC=C(C(C)(C)C)C=C4)C5=CC=C(C(C)(C)C)C=C5)C=C6C(CCCC6)=C2C7=C(O1)C([Si](C8=CC=C(C(C)(C)C)C=C8)(C9=CC=C(C(C)(C)C)C=C9)C%10=CC=C(C(C)(C)C)C=C%10)=CC%11=C7CCCC%11
 OpenBabel09032010373D

184194  0  0  0  0  0  0  0  0999 V2000
    0.5083    1.3481   -1.4214 O   0  0  0  0  0  0  0  0  0  0  0  0
    0.5317    0.9949    0.0312 P   0  0  0  0  0  0  0  0  0  0  0  0
    1.7380    1.7887    0.7486 O   0  0  0  0  0  0  0  0  0  0  0  0
   -0.7397    1.4484    0.8960 O   0  0  0  0  0  0  0  0  0  0  0  0
   -1.5929    0.5907    1.5538 C   0  0  0  0  0  0  0  0  0  0  0  0
   -2.9800    0.8405    1.3605 C   0  0  0  0  0  0  0  0  0  0  0  0
   -3.6405    1.9880    0.0203 Si  0  0  0  0  0  0  0  0  0  0  0  0
   -3.1940    3.7695    0.2971 C   0  0  0  0  0  0  0  0  0  0  0  0
   -3.7827    4.7827   -0.4831 C   0  0  0  0  0  0  0  0  0  0  0  0
   -3.4719    6.1379   -0.2963 C   0  0  0  0  0  0  0  0  0  0  0  0
   -2.5574    6.5486    0.6811 C   0  0  0  0  0  0  0  0  0  0  0  0
   -2.1864    8.0230    0.9101 C   0  0  0  0  0  0  0  0  0  0  0  0
   -0.6703    8.2163    0.6913 C   0  0  0  0  0  0  0  0  0  0  0  0
   -2.9136    9.0045   -0.0367 C   0  0  0  0  0  0  0  0  0  0  0  0
   -2.5469    8.4306    2.3550 C   0  0  0  0  0  0  0  0  0  0  0  0
   -1.9773    5.5402    1.4684 C   0  0  0  0  0  0  0  0  0  0  0  0
   -2.2959    4.1865    1.2892 C   0  0  0  0  0  0  0  0  0  0  0  0
   -2.9398    1.3133   -1.5773 C   0  0  0  0  0  0  0  0  0  0  0  0
   -2.5618    2.1399   -2.6441 C   0  0  0  0  0  0  0  0  0  0  0  0
   -1.9670    1.6128   -3.8012 C   0  0  0  0  0  0  0  0  0  0  0  0
   -1.7199    0.2397   -3.9428 C   0  0  0  0  0  0  0  0  0  0  0  0
   -0.9945   -0.3561   -5.1591 C   0  0  0  0  0  0  0  0  0  0  0  0
   -0.7016    0.6710   -6.2761 C   0  0  0  0  0  0  0  0  0  0  0  0
    0.3603   -0.9397   -4.7029 C   0  0  0  0  0  0  0  0  0  0  0  0
   -1.8482   -1.4773   -5.7909 C   0  0  0  0  0  0  0  0  0  0  0  0
   -2.1229   -0.5917   -2.8860 C   0  0  0  0  0  0  0  0  0  0  0  0
   -2.7276   -0.0705   -1.7369 C   0  0  0  0  0  0  0  0  0  0  0  0
   -5.5116    1.8851   -0.0455 C   0  0  0  0  0  0  0  0  0  0  0  0
   -6.3055    2.6070    0.8649 C   0  0  0  0  0  0  0  0  0  0  0  0
   -7.7063    2.5401    0.8326 C   0  0  0  0  0  0  0  0  0  0  0  0
   -8.3777    1.7489   -0.1090 C   0  0  0  0  0  0  0  0  0  0  0  0
   -9.9114    1.6534   -0.1763 C   0  0  0  0  0  0  0  0  0  0  0  0
  -10.3496    0.1873    0.0299 C   0  0  0  0  0  0  0  0  0  0  0  0
  -10.6378    2.5015    0.8922 C   0  0  0  0  0  0  0  0  0  0  0  0
  -10.4016    2.1408   -1.5568 C   0  0  0  0  0  0  0  0  0  0  0  0
   -7.5827    1.0288   -1.0178 C   0  0  0  0  0  0  0  0  0  0  0  0
   -6.1829    1.0941   -0.9893 C   0  0  0  0  0  0  0  0  0  0  0  0
   -3.8845    0.0938    2.1265 C   0  0  0  0  0  0  0  0  0  0  0  0
   -3.4564   -0.9353    2.9686 C   0  0  0  0  0  0  0  0  0  0  0  0
   -2.0741   -1.2058    3.1091 C   0  0  0  0  0  0  0  0  0  0  0  0
   -1.6884   -2.5327    3.7633 C   0  0  0  0  0  0  0  0  0  0  0  0
   -2.7066   -3.0488    4.7759 C   0  0  0  0  0  0  0  0  0  0  0  0
   -4.0833   -3.1040    4.1403 C   0  0  0  0  0  0  0  0  0  0  0  0
   -4.5181   -1.7079    3.7205 C   0  0  0  0  0  0  0  0  0  0  0  0
   -1.0879   -0.3888    2.4637 C   0  0  0  0  0  0  0  0  0  0  0  0
    0.3234   -0.6012    2.7015 C   0  0  0  0  0  0  0  0  0  0  0  0
    1.2133   -0.8704    1.6371 C   0  0  0  0  0  0  0  0  0  0  0  0
    0.8159   -0.5576    0.3604 O   0  0  0  0  0  0  0  0  0  0  0  0
    2.5057   -1.4325    1.7939 C   0  0  0  0  0  0  0  0  0  0  0  0
    3.5482   -1.9529    0.3261 Si  0  0  0  0  0  0  0  0  0  0  0  0
    2.6170   -3.0521   -0.8579 C   0  0  0  0  0  0  0  0  0  0  0  0
    3.2056   -3.4538   -2.0693 C   0  0  0  0  0  0  0  0  0  0  0  0
    2.5247   -4.2773   -2.9760 C   0  0  0  0  0  0  0  0  0  0  0  0
    1.2254   -4.7452   -2.7169 C   0  0  0  0  0  0  0  0  0  0  0  0
    0.5113   -5.6537   -3.7309 C   0  0  0  0  0  0  0  0  0  0  0  0
    0.3609   -4.9171   -5.0789 C   0  0  0  0  0  0  0  0  0  0  0  0
    1.3381   -6.9401   -3.9464 C   0  0  0  0  0  0  0  0  0  0  0  0
   -0.9043   -6.0902   -3.2899 C   0  0  0  0  0  0  0  0  0  0  0  0
    0.6433   -4.3561   -1.5041 C   0  0  0  0  0  0  0  0  0  0  0  0
    1.3287   -3.5416   -0.5902 C   0  0  0  0  0  0  0  0  0  0  0  0
    5.0325   -2.9489    0.8591 C   0  0  0  0  0  0  0  0  0  0  0  0
    6.3419   -2.6098    0.4864 C   0  0  0  0  0  0  0  0  0  0  0  0
    7.4376   -3.3837    0.8914 C   0  0  0  0  0  0  0  0  0  0  0  0
    7.2780   -4.5372    1.6776 C   0  0  0  0  0  0  0  0  0  0  0  0
    8.5051   -5.3621    2.0998 C   0  0  0  0  0  0  0  0  0  0  0  0
    8.1620   -6.5901    2.9733 C   0  0  0  0  0  0  0  0  0  0  0  0
    9.4703   -4.4771    2.9182 C   0  0  0  0  0  0  0  0  0  0  0  0
    9.2360   -5.8842    0.8441 C   0  0  0  0  0  0  0  0  0  0  0  0
    5.9690   -4.8880    2.0318 C   0  0  0  0  0  0  0  0  0  0  0  0
    4.8710   -4.1158    1.6274 C   0  0  0  0  0  0  0  0  0  0  0  0
    4.0630   -0.3466   -0.4735 C   0  0  0  0  0  0  0  0  0  0  0  0
    4.8927    0.5605    0.2109 C   0  0  0  0  0  0  0  0  0  0  0  0
    5.2626    1.7898   -0.3533 C   0  0  0  0  0  0  0  0  0  0  0  0
    4.8096    2.1756   -1.6213 C   0  0  0  0  0  0  0  0  0  0  0  0
    5.1817    3.5205   -2.2679 C   0  0  0  0  0  0  0  0  0  0  0  0
    6.1256    4.3877   -1.4046 C   0  0  0  0  0  0  0  0  0  0  0  0
    5.8956    3.2720   -3.6143 C   0  0  0  0  0  0  0  0  0  0  0  0
    3.9011    4.3463   -2.5161 C   0  0  0  0  0  0  0  0  0  0  0  0
    3.9721    1.2736   -2.2991 C   0  0  0  0  0  0  0  0  0  0  0  0
    3.6064    0.0417   -1.7407 C   0  0  0  0  0  0  0  0  0  0  0  0
    2.9918   -1.5435    3.1041 C   0  0  0  0  0  0  0  0  0  0  0  0
    2.2284   -1.1077    4.1896 C   0  0  0  0  0  0  0  0  0  0  0  0
    0.9112   -0.6362    3.9949 C   0  0  0  0  0  0  0  0  0  0  0  0
    0.1938   -0.1297    5.2358 C   0  0  0  0  0  0  0  0  0  0  0  0
    1.1279    0.7514    6.0673 C   0  0  0  0  0  0  0  0  0  0  0  0
    2.4824    0.1039    6.3773 C   0  0  0  0  0  0  0  0  0  0  0  0
    2.7666   -1.1791    5.5956 C   0  0  0  0  0  0  0  0  0  0  0  0
    2.4567    1.9271    0.1016 H   0  0  0  0  0  0  0  0  0  0  0  0
   -4.5091    4.5357   -1.2591 H   0  0  0  0  0  0  0  0  0  0  0  0
   -3.9710    6.8536   -0.9434 H   0  0  0  0  0  0  0  0  0  0  0  0
   -0.3838    9.2673    0.8152 H   0  0  0  0  0  0  0  0  0  0  0  0
   -0.0717    7.6356    1.4016 H   0  0  0  0  0  0  0  0  0  0  0  0
   -0.3748    7.9067   -0.3182 H   0  0  0  0  0  0  0  0  0  0  0  0
   -2.6784    8.8002   -1.0878 H   0  0  0  0  0  0  0  0  0  0  0  0
   -4.0017    8.9523    0.0863 H   0  0  0  0  0  0  0  0  0  0  0  0
   -2.6163   10.0408    0.1643 H   0  0  0  0  0  0  0  0  0  0  0  0
   -2.3236    9.4888    2.5346 H   0  0  0  0  0  0  0  0  0  0  0  0
   -3.6142    8.2765    2.5537 H   0  0  0  0  0  0  0  0  0  0  0  0
   -1.9873    7.8544    3.1000 H   0  0  0  0  0  0  0  0  0  0  0  0
   -1.2558    5.7881    2.2445 H   0  0  0  0  0  0  0  0  0  0  0  0
   -1.8136    3.4718    1.9536 H   0  0  0  0  0  0  0  0  0  0  0  0
   -2.6818    3.2196   -2.5909 H   0  0  0  0  0  0  0  0  0  0  0  0
   -1.6687    2.3212   -4.5684 H   0  0  0  0  0  0  0  0  0  0  0  0
   -0.2052    0.1948   -7.1303 H   0  0  0  0  0  0  0  0  0  0  0  0
   -1.6234    1.1310   -6.6509 H   0  0  0  0  0  0  0  0  0  0  0  0
   -0.0380    1.4709   -5.9276 H   0  0  0  0  0  0  0  0  0  0  0  0
    0.9094   -1.3724   -5.5473 H   0  0  0  0  0  0  0  0  0  0  0  0
    0.2382   -1.7311   -3.9556 H   0  0  0  0  0  0  0  0  0  0  0  0
    0.9934   -0.1646   -4.2548 H   0  0  0  0  0  0  0  0  0  0  0  0
   -2.0025   -2.3191   -5.1073 H   0  0  0  0  0  0  0  0  0  0  0  0
   -1.3665   -1.8828   -6.6884 H   0  0  0  0  0  0  0  0  0  0  0  0
   -2.8367   -1.1033   -6.0828 H   0  0  0  0  0  0  0  0  0  0  0  0
   -1.9403   -1.6640   -2.9221 H   0  0  0  0  0  0  0  0  0  0  0  0
   -2.9992   -0.7768   -0.9529 H   0  0  0  0  0  0  0  0  0  0  0  0
   -5.8451    3.2439    1.6213 H   0  0  0  0  0  0  0  0  0  0  0  0
   -8.2498    3.1303    1.5661 H   0  0  0  0  0  0  0  0  0  0  0  0
   -9.9675   -0.4740   -0.7555 H   0  0  0  0  0  0  0  0  0  0  0  0
  -11.4421    0.0963    0.0215 H   0  0  0  0  0  0  0  0  0  0  0  0
   -9.9898   -0.2005    0.9903 H   0  0  0  0  0  0  0  0  0  0  0  0
  -10.4057    3.5677    0.7876 H   0  0  0  0  0  0  0  0  0  0  0  0
  -10.3657    2.1905    1.9076 H   0  0  0  0  0  0  0  0  0  0  0  0
  -11.7262    2.3991    0.8049 H   0  0  0  0  0  0  0  0  0  0  0  0
  -11.4958    2.1153   -1.6194 H   0  0  0  0  0  0  0  0  0  0  0  0
  -10.0198    1.5204   -2.3750 H   0  0  0  0  0  0  0  0  0  0  0  0
  -10.0804    3.1716   -1.7481 H   0  0  0  0  0  0  0  0  0  0  0  0
   -8.0437    0.3989   -1.7760 H   0  0  0  0  0  0  0  0  0  0  0  0
   -5.6358    0.5120   -1.7300 H   0  0  0  0  0  0  0  0  0  0  0  0
   -4.9587    0.2568    2.0337 H   0  0  0  0  0  0  0  0  0  0  0  0
   -1.5847   -3.2685    2.9542 H   0  0  0  0  0  0  0  0  0  0  0  0
   -0.7259   -2.5018    4.2696 H   0  0  0  0  0  0  0  0  0  0  0  0
   -2.7251   -2.3975    5.6587 H   0  0  0  0  0  0  0  0  0  0  0  0
   -2.4127   -4.0483    5.1158 H   0  0  0  0  0  0  0  0  0  0  0  0
   -4.0606   -3.7674    3.2665 H   0  0  0  0  0  0  0  0  0  0  0  0
   -4.8111   -3.5238    4.8435 H   0  0  0  0  0  0  0  0  0  0  0  0
   -5.4239   -1.7993    3.1085 H   0  0  0  0  0  0  0  0  0  0  0  0
   -4.7849   -1.1258    4.6118 H   0  0  0  0  0  0  0  0  0  0  0  0
    4.2140   -3.1330   -2.3327 H   0  0  0  0  0  0  0  0  0  0  0  0
    3.0381   -4.5519   -3.8952 H   0  0  0  0  0  0  0  0  0  0  0  0
    1.3281   -4.6407   -5.5124 H   0  0  0  0  0  0  0  0  0  0  0  0
   -0.1546   -5.5435   -5.8163 H   0  0  0  0  0  0  0  0  0  0  0  0
   -0.2225   -3.9975   -4.9606 H   0  0  0  0  0  0  0  0  0  0  0  0
    0.8316   -7.6246   -4.6370 H   0  0  0  0  0  0  0  0  0  0  0  0
    1.4914   -7.4736   -3.0008 H   0  0  0  0  0  0  0  0  0  0  0  0
    2.3264   -6.7316   -4.3705 H   0  0  0  0  0  0  0  0  0  0  0  0
   -1.5667   -5.2282   -3.1485 H   0  0  0  0  0  0  0  0  0  0  0  0
   -0.8779   -6.6581   -2.3526 H   0  0  0  0  0  0  0  0  0  0  0  0
   -1.3718   -6.7350   -4.0439 H   0  0  0  0  0  0  0  0  0  0  0  0
   -0.3584   -4.6737   -1.2272 H   0  0  0  0  0  0  0  0  0  0  0  0
    0.8142   -3.3007    0.3382 H   0  0  0  0  0  0  0  0  0  0  0  0
    6.5446   -1.7416   -0.1390 H   0  0  0  0  0  0  0  0  0  0  0  0
    8.4288   -3.0687    0.5700 H   0  0  0  0  0  0  0  0  0  0  0  0
    7.6623   -6.2962    3.9038 H   0  0  0  0  0  0  0  0  0  0  0  0
    7.5100   -7.2937    2.4427 H   0  0  0  0  0  0  0  0  0  0  0  0
    9.0679   -7.1409    3.2539 H   0  0  0  0  0  0  0  0  0  0  0  0
    9.8569   -3.6347    2.3343 H   0  0  0  0  0  0  0  0  0  0  0  0
   10.3378   -5.0521    3.2628 H   0  0  0  0  0  0  0  0  0  0  0  0
    8.9717   -4.0632    3.8027 H   0  0  0  0  0  0  0  0  0  0  0  0
   10.0974   -6.5049    1.1175 H   0  0  0  0  0  0  0  0  0  0  0  0
    9.6144   -5.0700    0.2163 H   0  0  0  0  0  0  0  0  0  0  0  0
    8.5685   -6.4945    0.2242 H   0  0  0  0  0  0  0  0  0  0  0  0
    5.7603   -5.7742    2.6249 H   0  0  0  0  0  0  0  0  0  0  0  0
    3.8775   -4.4535    1.9247 H   0  0  0  0  0  0  0  0  0  0  0  0
    5.2660    0.3285    1.2098 H   0  0  0  0  0  0  0  0  0  0  0  0
    5.9097    2.4326    0.2381 H   0  0  0  0  0  0  0  0  0  0  0  0
    7.0750    3.8762   -1.2070 H   0  0  0  0  0  0  0  0  0  0  0  0
    5.6694    4.6452   -0.4416 H   0  0  0  0  0  0  0  0  0  0  0  0
    6.3664    5.3314   -1.9085 H   0  0  0  0  0  0  0  0  0  0  0  0
    6.2041    4.2162   -4.0782 H   0  0  0  0  0  0  0  0  0  0  0  0
    5.2525    2.7567   -4.3361 H   0  0  0  0  0  0  0  0  0  0  0  0
    6.7939    2.6585   -3.4770 H   0  0  0  0  0  0  0  0  0  0  0  0
    3.3548    4.5178   -1.5810 H   0  0  0  0  0  0  0  0  0  0  0  0
    3.2153    3.8487   -3.2106 H   0  0  0  0  0  0  0  0  0  0  0  0
    4.1397    5.3255   -2.9474 H   0  0  0  0  0  0  0  0  0  0  0  0
    3.5707    1.5206   -3.2810 H   0  0  0  0  0  0  0  0  0  0  0  0
    2.9282   -0.5881   -2.3175 H   0  0  0  0  0  0  0  0  0  0  0  0
    3.9926   -1.9284    3.2985 H   0  0  0  0  0  0  0  0  0  0  0  0
   -0.6870    0.4663    4.9764 H   0  0  0  0  0  0  0  0  0  0  0  0
   -0.1456   -0.9808    5.8371 H   0  0  0  0  0  0  0  0  0  0  0  0
    1.3100    1.6863    5.5198 H   0  0  0  0  0  0  0  0  0  0  0  0
    0.6324    1.0402    7.0017 H   0  0  0  0  0  0  0  0  0  0  0  0
    2.5583   -0.1083    7.4506 H   0  0  0  0  0  0  0  0  0  0  0  0
    3.2696    0.8388    6.1628 H   0  0  0  0  0  0  0  0  0  0  0  0
    3.8466   -1.3674    5.5966 H   0  0  0  0  0  0  0  0  0  0  0  0
    2.2964   -2.0342    6.0976 H   0  0  0  0  0  0  0  0  0  0  0  0
  1  2  2  0  0  0  0
  2 48  1  0  0  0  0
  2  3  1  0  0  0  0
  2  4  1  0  0  0  0
  4  5  1  0  0  0  0
  5 45  1  0  0  0  0
  6  5  2  0  0  0  0
  6 38  1  0  0  0  0
  7  8  1  0  0  0  0
  7  6  1  0  0  0  0
  8 17  2  0  0  0  0
  9 10  2  0  0  0  0
  9  8  1  0  0  0  0
 10 11  1  0  0  0  0
 11 12  1  0  0  0  0
 11 16  2  0  0  0  0
 12 15  1  0  0  0  0
 13 91  1  0  0  0  0
 13 12  1  0  0  0  0
 13 92  1  0  0  0  0
 14 95  1  0  0  0  0
 14 96  1  0  0  0  0
 14 12  1  0  0  0  0
 15 97  1  0  0  0  0
 15 98  1  0  0  0  0
 15 99  1  0  0  0  0
 16100  1  0  0  0  0
 17 16  1  0  0  0  0
 17101  1  0  0  0  0
 18  7  1  0  0  0  0
 19102  1  0  0  0  0
 19 18  2  0  0  0  0
 20 19  1  0  0  0  0
 21 20  2  0  0  0  0
 21 26  1  0  0  0  0
 22 24  1  0  0  0  0
 22 21  1  0  0  0  0
 23106  1  0  0  0  0
 23 22  1  0  0  0  0
 24109  1  0  0  0  0
 24108  1  0  0  0  0
 25 22  1  0  0  0  0
 25110  1  0  0  0  0
 26 27  2  0  0  0  0
 27 18  1  0  0  0  0
 27114  1  0  0  0  0
 28  7  1  0  0  0  0
 28 29  2  0  0  0  0
 29115  1  0  0  0  0
 30 29  1  0  0  0  0
 30116  1  0  0  0  0
 31 30  2  0  0  0  0
 32 31  1  0  0  0  0
 32 33  1  0  0  0  0
 32 34  1  0  0  0  0
 33119  1  0  0  0  0
 34121  1  0  0  0  0
 35 32  1  0  0  0  0
 36 37  2  0  0  0  0
 36 31  1  0  0  0  0
 37 28  1  0  0  0  0
 38 39  2  0  0  0  0
 39 40  1  0  0  0  0
 39 44  1  0  0  0  0
 40 41  1  0  0  0  0
 41130  1  0  0  0  0
 41 42  1  0  0  0  0
 42132  1  0  0  0  0
 42131  1  0  0  0  0
 43 42  1  0  0  0  0
 43134  1  0  0  0  0
 44 43  1  0  0  0  0
 44136  1  0  0  0  0
 45 46  1  0  0  0  0
 45 40  2  0  0  0  0
 46 83  2  0  0  0  0
 47 49  2  0  0  0  0
 47 46  1  0  0  0  0
 48 47  1  0  0  0  0
 49 81  1  0  0  0  0
 50 61  1  0  0  0  0
 50 49  1  0  0  0  0
 51 60  1  0  0  0  0
 51 50  1  0  0  0  0
 52 51  2  0  0  0  0
 53 54  2  0  0  0  0
 53 52  1  0  0  0  0
 54 59  1  0  0  0  0
 55 58  1  0  0  0  0
 55 54  1  0  0  0  0
 56141  1  0  0  0  0
 56 55  1  0  0  0  0
 57 55  1  0  0  0  0
 57143  1  0  0  0  0
 58145  1  0  0  0  0
 58146  1  0  0  0  0
 59148  1  0  0  0  0
 59 60  2  0  0  0  0
 60149  1  0  0  0  0
 61 70  1  0  0  0  0
 62 61  2  0  0  0  0
 62 63  1  0  0  0  0
 63 64  2  0  0  0  0
 64 69  1  0  0  0  0
 64 65  1  0  0  0  0
 65 67  1  0  0  0  0
 65 66  1  0  0  0  0
 66154  1  0  0  0  0
 66152  1  0  0  0  0
 67156  1  0  0  0  0
 67157  1  0  0  0  0
 68158  1  0  0  0  0
 68 65  1  0  0  0  0
 69161  1  0  0  0  0
 70162  1  0  0  0  0
 70 69  2  0  0  0  0
 71 72  2  0  0  0  0
 71 50  1  0  0  0  0
 72163  1  0  0  0  0
 73 72  1  0  0  0  0
 73164  1  0  0  0  0
 74 73  2  0  0  0  0
 75 74  1  0  0  0  0
 75 76  1  0  0  0  0
 76165  1  0  0  0  0
 76166  1  0  0  0  0
 77170  1  0  0  0  0
 77 75  1  0  0  0  0
 78 75  1  0  0  0  0
 78171  1  0  0  0  0
 79 80  2  0  0  0  0
 79 74  1  0  0  0  0
 80 71  1  0  0  0  0
 81176  1  0  0  0  0
 81 82  2  0  0  0  0
 82 87  1  0  0  0  0
 83 82  1  0  0  0  0
 83 84  1  0  0  0  0
 84178  1  0  0  0  0
 84 85  1  0  0  0  0
 85 86  1  0  0  0  0
 85180  1  0  0  0  0
 86181  1  0  0  0  0
 87183  1  0  0  0  0
 87184  1  0  0  0  0
 87 86  1  0  0  0  0
 88  3  1  0  0  0  0
 89  9  1  0  0  0  0
 90 10  1  0  0  0  0
 93 13  1  0  0  0  0
 94 14  1  0  0  0  0
103 20  1  0  0  0  0
104 23  1  0  0  0  0
105 23  1  0  0  0  0
107 24  1  0  0  0  0
111 25  1  0  0  0  0
112 25  1  0  0  0  0
113 26  1  0  0  0  0
117 33  1  0  0  0  0
118 33  1  0  0  0  0
120 34  1  0  0  0  0
122 34  1  0  0  0  0
123 35  1  0  0  0  0
124 35  1  0  0  0  0
125 35  1  0  0  0  0
126 36  1  0  0  0  0
127 37  1  0  0  0  0
128 38  1  0  0  0  0
129 41  1  0  0  0  0
133 43  1  0  0  0  0
135 44  1  0  0  0  0
137 52  1  0  0  0  0
138 53  1  0  0  0  0
139 56  1  0  0  0  0
140 56  1  0  0  0  0
142 57  1  0  0  0  0
144 57  1  0  0  0  0
147 58  1  0  0  0  0
150 62  1  0  0  0  0
151 63  1  0  0  0  0
153 66  1  0  0  0  0
155 67  1  0  0  0  0
159 68  1  0  0  0  0
160 68  1  0  0  0  0
167 76  1  0  0  0  0
168 77  1  0  0  0  0
169 77  1  0  0  0  0
172 78  1  0  0  0  0
173 78  1  0  0  0  0
174 79  1  0  0  0  0
175 80  1  0  0  0  0
177 84  1  0  0  0  0
179 85  1  0  0  0  0
182 86  1  0  0  0  0
M  END
$$$$
