O=P1(O)OC2=[C@]([C@]3=C(Cl)C=C(Cl)C=C3Cl)C=C4C(CCCC4)=[C@]2[C@]5=C(O1)C(C6=C(Cl)C=C(Cl)C=C6Cl)=CC7=C5CCCC7
 OpenBabel09032010373D

 66 72  0  0  0  0  0  0  0  0999 V2000
    0.5141   -3.7588   -0.3233 O   0  0  0  0  0  0  0  0  0  0  0  0
   -0.0279   -2.5592    0.3888 P   0  0  0  0  0  0  0  0  0  0  0  0
   -0.7538   -3.0174    1.7485 O   0  0  0  0  0  0  0  0  0  0  0  0
    1.0727   -1.5053    0.9060 O   0  0  0  0  0  0  0  0  0  0  0  0
    1.5390   -0.5846   -0.0055 C   0  0  0  0  0  0  0  0  0  0  0  0
    2.8780   -0.7131   -0.4178 C   0  0  0  0  0  0  0  0  0  0  0  0
    3.7417   -1.8021    0.0780 C   0  0  0  0  0  0  0  0  0  0  0  0
    4.3346   -1.7455    1.3571 C   0  0  0  0  0  0  0  0  0  0  0  0
    4.1362   -0.3720    2.3961 Cl  0  0  0  0  0  0  0  0  0  0  0  0
    5.1236   -2.7940    1.8403 C   0  0  0  0  0  0  0  0  0  0  0  0
    5.3369   -3.9171    1.0501 C   0  0  0  0  0  0  0  0  0  0  0  0
    6.3041   -5.2081    1.6467 Cl  0  0  0  0  0  0  0  0  0  0  0  0
    4.7792   -4.0020   -0.2195 C   0  0  0  0  0  0  0  0  0  0  0  0
    3.9913   -2.9522   -0.7019 C   0  0  0  0  0  0  0  0  0  0  0  0
    3.3451   -3.1298   -2.3009 Cl  0  0  0  0  0  0  0  0  0  0  0  0
    3.3728    0.2138   -1.3362 C   0  0  0  0  0  0  0  0  0  0  0  0
    2.5511    1.2156   -1.8686 C   0  0  0  0  0  0  0  0  0  0  0  0
    1.2032    1.3220   -1.4453 C   0  0  0  0  0  0  0  0  0  0  0  0
    0.2973    2.3312   -2.1374 C   0  0  0  0  0  0  0  0  0  0  0  0
    0.8079    2.7848   -3.5036 C   0  0  0  0  0  0  0  0  0  0  0  0
    2.2484    3.2506   -3.3758 C   0  0  0  0  0  0  0  0  0  0  0  0
    3.1367    2.0856   -2.9589 C   0  0  0  0  0  0  0  0  0  0  0  0
    0.6788    0.4533   -0.4323 C   0  0  0  0  0  0  0  0  0  0  0  0
   -0.6450    0.5771    0.1297 C   0  0  0  0  0  0  0  0  0  0  0  0
   -1.5609   -0.5059    0.0975 C   0  0  0  0  0  0  0  0  0  0  0  0
   -1.1584   -1.7280   -0.3991 O   0  0  0  0  0  0  0  0  0  0  0  0
   -2.9156   -0.4011    0.4856 C   0  0  0  0  0  0  0  0  0  0  0  0
   -3.8509   -1.5369    0.3495 C   0  0  0  0  0  0  0  0  0  0  0  0
   -4.3685   -1.9117   -0.9099 C   0  0  0  0  0  0  0  0  0  0  0  0
   -3.9965   -1.0249   -2.3532 Cl  0  0  0  0  0  0  0  0  0  0  0  0
   -5.2264   -3.0075   -1.0491 C   0  0  0  0  0  0  0  0  0  0  0  0
   -5.5887   -3.7450    0.0709 C   0  0  0  0  0  0  0  0  0  0  0  0
   -6.6431   -5.0932   -0.0985 Cl  0  0  0  0  0  0  0  0  0  0  0  0
   -5.1119   -3.3962    1.3284 C   0  0  0  0  0  0  0  0  0  0  0  0
   -4.2530   -2.3006    1.4664 C   0  0  0  0  0  0  0  0  0  0  0  0
   -3.7170   -1.9307    3.0733 Cl  0  0  0  0  0  0  0  0  0  0  0  0
   -3.3645    0.8167    1.0019 C   0  0  0  0  0  0  0  0  0  0  0  0
   -2.4774    1.8778    1.1722 C   0  0  0  0  0  0  0  0  0  0  0  0
   -1.1292    1.7621    0.7539 C   0  0  0  0  0  0  0  0  0  0  0  0
   -0.2362    2.9391    1.1153 C   0  0  0  0  0  0  0  0  0  0  0  0
   -0.4827    3.3666    2.5639 C   0  0  0  0  0  0  0  0  0  0  0  0
   -1.9579    3.6426    2.8790 C   0  0  0  0  0  0  0  0  0  0  0  0
   -2.9309    3.1730    1.7964 C   0  0  0  0  0  0  0  0  0  0  0  0
   -0.3779   -3.8610    2.0581 H   0  0  0  0  0  0  0  0  0  0  0  0
    5.5685   -2.7314    2.8303 H   0  0  0  0  0  0  0  0  0  0  0  0
    4.9510   -4.8824   -0.8341 H   0  0  0  0  0  0  0  0  0  0  0  0
    4.4031    0.1311   -1.6806 H   0  0  0  0  0  0  0  0  0  0  0  0
    0.2104    3.2183   -1.5065 H   0  0  0  0  0  0  0  0  0  0  0  0
   -0.7037    1.9079   -2.2782 H   0  0  0  0  0  0  0  0  0  0  0  0
    0.1799    3.6011   -3.8779 H   0  0  0  0  0  0  0  0  0  0  0  0
    0.7396    1.9637   -4.2280 H   0  0  0  0  0  0  0  0  0  0  0  0
    2.3127    4.0549   -2.6320 H   0  0  0  0  0  0  0  0  0  0  0  0
    2.6028    3.6650   -4.3262 H   0  0  0  0  0  0  0  0  0  0  0  0
    3.3151    1.4481   -3.8347 H   0  0  0  0  0  0  0  0  0  0  0  0
    4.1078    2.4793   -2.6352 H   0  0  0  0  0  0  0  0  0  0  0  0
   -5.6085   -3.2811   -2.0295 H   0  0  0  0  0  0  0  0  0  0  0  0
   -5.4040   -3.9747    2.2013 H   0  0  0  0  0  0  0  0  0  0  0  0
   -4.4029    0.9265    1.3086 H   0  0  0  0  0  0  0  0  0  0  0  0
   -0.4566    3.7797    0.4483 H   0  0  0  0  0  0  0  0  0  0  0  0
    0.8249    2.6943    1.0106 H   0  0  0  0  0  0  0  0  0  0  0  0
    0.1176    4.2536    2.7978 H   0  0  0  0  0  0  0  0  0  0  0  0
   -0.1267    2.5722    3.2338 H   0  0  0  0  0  0  0  0  0  0  0  0
   -2.1090    4.7148    3.0534 H   0  0  0  0  0  0  0  0  0  0  0  0
   -2.2043    3.1477    3.8275 H   0  0  0  0  0  0  0  0  0  0  0  0
   -3.0034    3.9283    1.0036 H   0  0  0  0  0  0  0  0  0  0  0  0
   -3.9328    3.0754    2.2305 H   0  0  0  0  0  0  0  0  0  0  0  0
  1  2  2  0  0  0  0
  2  4  1  0  0  0  0
  2  3  1  0  0  0  0
  3 44  1  0  0  0  0
  5  4  1  0  0  0  0
  6  5  1  0  0  0  0
  6  7  1  0  0  0  0
  7  8  2  0  0  0  0
  8 10  1  0  0  0  0
  8  9  1  0  0  0  0
 10 45  1  0  0  0  0
 11 12  1  0  0  0  0
 11 10  2  0  0  0  0
 13 11  1  0  0  0  0
 14 13  2  0  0  0  0
 14  7  1  0  0  0  0
 15 14  1  0  0  0  0
 16  6  2  0  0  0  0
 17 18  2  0  0  0  0
 17 16  1  0  0  0  0
 18 23  1  0  0  0  0
 19 48  1  0  0  0  0
 19 18  1  0  0  0  0
 20 21  1  0  0  0  0
 20 19  1  0  0  0  0
 21 22  1  0  0  0  0
 21 52  1  0  0  0  0
 22 55  1  0  0  0  0
 22 17  1  0  0  0  0
 23  5  2  0  0  0  0
 23 24  1  0  0  0  0
 24 39  1  0  0  0  0
 25 24  2  0  0  0  0
 25 27  1  0  0  0  0
 26 25  1  0  0  0  0
 26  2  1  0  0  0  0
 27 37  2  0  0  0  0
 28 27  1  0  0  0  0
 28 35  2  0  0  0  0
 29 28  1  0  0  0  0
 30 29  1  0  0  0  0
 31 29  2  0  0  0  0
 31 32  1  0  0  0  0
 32 34  2  0  0  0  0
 33 32  1  0  0  0  0
 34 35  1  0  0  0  0
 34 57  1  0  0  0  0
 35 36  1  0  0  0  0
 37 38  1  0  0  0  0
 37 58  1  0  0  0  0
 38 43  1  0  0  0  0
 39 40  1  0  0  0  0
 39 38  2  0  0  0  0
 40 41  1  0  0  0  0
 41 61  1  0  0  0  0
 41 42  1  0  0  0  0
 41 62  1  0  0  0  0
 42 63  1  0  0  0  0
 42 64  1  0  0  0  0
 43 66  1  0  0  0  0
 43 42  1  0  0  0  0
 46 13  1  0  0  0  0
 47 16  1  0  0  0  0
 49 19  1  0  0  0  0
 50 20  1  0  0  0  0
 51 20  1  0  0  0  0
 53 21  1  0  0  0  0
 54 22  1  0  0  0  0
 56 31  1  0  0  0  0
 59 40  1  0  0  0  0
 60 40  1  0  0  0  0
 65 43  1  0  0  0  0
M  END
$$$$
