O=P1(O)OC2=C(CC3=CC=C(OC)C=C3)C=C4C(CCCC4)=C2C5=C(O1)C(CC6=CC=C(OC)C=C6)=CC7=C5CCCC7
 OpenBabel09032010373D

 80 86  0  0  0  0  0  0  0  0999 V2000
    1.4861    2.7434   -2.0201 O   0  0  0  0  0  0  0  0  0  0  0  0
    0.5603    1.5687   -2.1059 P   0  0  0  0  0  0  0  0  0  0  0  0
   -0.3171    1.6583   -3.4527 O   0  0  0  0  0  0  0  0  0  0  0  0
    1.2815    0.1324   -2.2327 O   0  0  0  0  0  0  0  0  0  0  0  0
    1.7462   -0.4256   -1.0653 C   0  0  0  0  0  0  0  0  0  0  0  0
    3.1366   -0.5241   -0.8997 C   0  0  0  0  0  0  0  0  0  0  0  0
    4.1059   -0.1110   -1.9896 C   0  0  0  0  0  0  0  0  0  0  0  0
    5.2508    0.7651   -1.5271 C   0  0  0  0  0  0  0  0  0  0  0  0
    6.5649    0.2820   -1.5261 C   0  0  0  0  0  0  0  0  0  0  0  0
    7.6157    1.0961   -1.0962 C   0  0  0  0  0  0  0  0  0  0  0  0
    7.3766    2.4021   -0.6636 C   0  0  0  0  0  0  0  0  0  0  0  0
    8.4930    3.0876   -0.2701 O   0  0  0  0  0  0  0  0  0  0  0  0
    8.3001    4.4245    0.1740 C   0  0  0  0  0  0  0  0  0  0  0  0
    6.0705    2.8902   -0.6652 C   0  0  0  0  0  0  0  0  0  0  0  0
    5.0152    2.0772   -1.0948 C   0  0  0  0  0  0  0  0  0  0  0  0
    3.6128   -1.0764    0.2912 C   0  0  0  0  0  0  0  0  0  0  0  0
    2.7390   -1.4500    1.3200 C   0  0  0  0  0  0  0  0  0  0  0  0
    1.3393   -1.3590    1.1263 C   0  0  0  0  0  0  0  0  0  0  0  0
    0.4220   -1.5809    2.3241 C   0  0  0  0  0  0  0  0  0  0  0  0
    1.0367   -2.4395    3.4264 C   0  0  0  0  0  0  0  0  0  0  0  0
    2.4117   -1.9106    3.7960 C   0  0  0  0  0  0  0  0  0  0  0  0
    3.3434   -1.9944    2.5943 C   0  0  0  0  0  0  0  0  0  0  0  0
    0.8042   -0.8965   -0.1183 C   0  0  0  0  0  0  0  0  0  0  0  0
   -0.6025   -0.8963   -0.4331 C   0  0  0  0  0  0  0  0  0  0  0  0
   -1.2648    0.3049   -0.7957 C   0  0  0  0  0  0  0  0  0  0  0  0
   -0.5376    1.4660   -0.9309 O   0  0  0  0  0  0  0  0  0  0  0  0
   -2.6547    0.4028   -0.9876 C   0  0  0  0  0  0  0  0  0  0  0  0
   -3.3008    1.7298   -1.3437 C   0  0  0  0  0  0  0  0  0  0  0  0
   -4.7254    1.9223   -0.8632 C   0  0  0  0  0  0  0  0  0  0  0  0
   -5.0022    2.0872    0.5013 C   0  0  0  0  0  0  0  0  0  0  0  0
   -6.3183    2.2500    0.9508 C   0  0  0  0  0  0  0  0  0  0  0  0
   -7.3753    2.2509    0.0412 C   0  0  0  0  0  0  0  0  0  0  0  0
   -8.7013    2.3958    0.3449 O   0  0  0  0  0  0  0  0  0  0  0  0
   -9.0348    2.5435    1.7195 C   0  0  0  0  0  0  0  0  0  0  0  0
   -7.1026    2.0914   -1.3193 C   0  0  0  0  0  0  0  0  0  0  0  0
   -5.7907    1.9284   -1.7716 C   0  0  0  0  0  0  0  0  0  0  0  0
   -3.4042   -0.7734   -0.9239 C   0  0  0  0  0  0  0  0  0  0  0  0
   -2.7989   -2.0116   -0.6753 C   0  0  0  0  0  0  0  0  0  0  0  0
   -1.4062   -2.0823   -0.4284 C   0  0  0  0  0  0  0  0  0  0  0  0
   -0.7521   -3.4591   -0.3616 C   0  0  0  0  0  0  0  0  0  0  0  0
   -1.7075   -4.5871    0.0193 C   0  0  0  0  0  0  0  0  0  0  0  0
   -2.9463   -4.5409   -0.8571 C   0  0  0  0  0  0  0  0  0  0  0  0
   -3.6911   -3.2318   -0.6350 C   0  0  0  0  0  0  0  0  0  0  0  0
    0.1479    2.2096   -4.1081 H   0  0  0  0  0  0  0  0  0  0  0  0
    3.5956    0.4287   -2.7963 H   0  0  0  0  0  0  0  0  0  0  0  0
    4.4950   -1.0272   -2.4530 H   0  0  0  0  0  0  0  0  0  0  0  0
    6.7824   -0.7307   -1.8570 H   0  0  0  0  0  0  0  0  0  0  0  0
    8.6315    0.7090   -1.0987 H   0  0  0  0  0  0  0  0  0  0  0  0
    7.8922    5.0515   -0.6257 H   0  0  0  0  0  0  0  0  0  0  0  0
    9.2789    4.8301    0.4479 H   0  0  0  0  0  0  0  0  0  0  0  0
    7.6654    4.4568    1.0657 H   0  0  0  0  0  0  0  0  0  0  0  0
    5.8328    3.8972   -0.3396 H   0  0  0  0  0  0  0  0  0  0  0  0
    4.0028    2.4783   -1.0877 H   0  0  0  0  0  0  0  0  0  0  0  0
    4.6862   -1.1857    0.4421 H   0  0  0  0  0  0  0  0  0  0  0  0
   -0.5249   -2.0448    2.0430 H   0  0  0  0  0  0  0  0  0  0  0  0
    0.1801   -0.5915    2.7346 H   0  0  0  0  0  0  0  0  0  0  0  0
    1.1152   -3.4814    3.0913 H   0  0  0  0  0  0  0  0  0  0  0  0
    0.3830   -2.4312    4.3058 H   0  0  0  0  0  0  0  0  0  0  0  0
    2.3287   -0.8700    4.1344 H   0  0  0  0  0  0  0  0  0  0  0  0
    2.8293   -2.4872    4.6288 H   0  0  0  0  0  0  0  0  0  0  0  0
    3.6150   -3.0427    2.4163 H   0  0  0  0  0  0  0  0  0  0  0  0
    4.2667   -1.4524    2.8328 H   0  0  0  0  0  0  0  0  0  0  0  0
   -3.2568    1.8416   -2.4348 H   0  0  0  0  0  0  0  0  0  0  0  0
   -2.7180    2.5618   -0.9281 H   0  0  0  0  0  0  0  0  0  0  0  0
   -4.1899    2.0832    1.2257 H   0  0  0  0  0  0  0  0  0  0  0  0
   -6.4797    2.3714    2.0164 H   0  0  0  0  0  0  0  0  0  0  0  0
  -10.1225    2.6390    1.7913 H   0  0  0  0  0  0  0  0  0  0  0  0
   -8.5921    3.4538    2.1369 H   0  0  0  0  0  0  0  0  0  0  0  0
   -8.7391    1.6598    2.2946 H   0  0  0  0  0  0  0  0  0  0  0  0
   -7.9213    2.0924   -2.0347 H   0  0  0  0  0  0  0  0  0  0  0  0
   -5.6099    1.8016   -2.8365 H   0  0  0  0  0  0  0  0  0  0  0  0
   -4.4794   -0.7414   -1.0955 H   0  0  0  0  0  0  0  0  0  0  0  0
   -0.3320   -3.6670   -1.3546 H   0  0  0  0  0  0  0  0  0  0  0  0
    0.0779   -3.4918    0.3454 H   0  0  0  0  0  0  0  0  0  0  0  0
   -1.9931   -4.4971    1.0750 H   0  0  0  0  0  0  0  0  0  0  0  0
   -1.2013   -5.5519   -0.0973 H   0  0  0  0  0  0  0  0  0  0  0  0
   -2.6573   -4.6342   -1.9116 H   0  0  0  0  0  0  0  0  0  0  0  0
   -3.6057   -5.3854   -0.6282 H   0  0  0  0  0  0  0  0  0  0  0  0
   -4.1845   -3.2548    0.3450 H   0  0  0  0  0  0  0  0  0  0  0  0
   -4.4771   -3.1473   -1.3955 H   0  0  0  0  0  0  0  0  0  0  0  0
  2  1  2  0  0  0  0
  2 26  1  0  0  0  0
  3  2  1  0  0  0  0
  4  2  1  0  0  0  0
  4  5  1  0  0  0  0
  5  6  2  0  0  0  0
  5 23  1  0  0  0  0
  6 16  1  0  0  0  0
  7  8  1  0  0  0  0
  7  6  1  0  0  0  0
  8  9  2  0  0  0  0
  8 15  1  0  0  0  0
  9 10  1  0  0  0  0
 10 11  2  0  0  0  0
 11 12  1  0  0  0  0
 12 13  1  0  0  0  0
 13 50  1  0  0  0  0
 13 51  1  0  0  0  0
 14 11  1  0  0  0  0
 14 52  1  0  0  0  0
 15 53  1  0  0  0  0
 15 14  2  0  0  0  0
 16 54  1  0  0  0  0
 16 17  2  0  0  0  0
 17 22  1  0  0  0  0
 18 17  1  0  0  0  0
 18 19  1  0  0  0  0
 19 56  1  0  0  0  0
 19 20  1  0  0  0  0
 20 21  1  0  0  0  0
 20 58  1  0  0  0  0
 21 59  1  0  0  0  0
 21 60  1  0  0  0  0
 22 62  1  0  0  0  0
 22 21  1  0  0  0  0
 23 18  2  0  0  0  0
 24 39  1  0  0  0  0
 24 23  1  0  0  0  0
 25 24  2  0  0  0  0
 26 25  1  0  0  0  0
 27 37  2  0  0  0  0
 27 25  1  0  0  0  0
 28 27  1  0  0  0  0
 28 64  1  0  0  0  0
 28 29  1  0  0  0  0
 29 30  2  0  0  0  0
 30 31  1  0  0  0  0
 30 65  1  0  0  0  0
 31 66  1  0  0  0  0
 32 33  1  0  0  0  0
 32 31  2  0  0  0  0
 33 34  1  0  0  0  0
 34 67  1  0  0  0  0
 34 68  1  0  0  0  0
 34 69  1  0  0  0  0
 35 32  1  0  0  0  0
 36 35  2  0  0  0  0
 36 29  1  0  0  0  0
 37 38  1  0  0  0  0
 38 43  1  0  0  0  0
 38 39  2  0  0  0  0
 39 40  1  0  0  0  0
 40 41  1  0  0  0  0
 40 74  1  0  0  0  0
 41 75  1  0  0  0  0
 42 43  1  0  0  0  0
 42 78  1  0  0  0  0
 42 41  1  0  0  0  0
 43 79  1  0  0  0  0
 44  3  1  0  0  0  0
 45  7  1  0  0  0  0
 46  7  1  0  0  0  0
 47  9  1  0  0  0  0
 48 10  1  0  0  0  0
 49 13  1  0  0  0  0
 55 19  1  0  0  0  0
 57 20  1  0  0  0  0
 61 22  1  0  0  0  0
 63 28  1  0  0  0  0
 70 35  1  0  0  0  0
 71 36  1  0  0  0  0
 72 37  1  0  0  0  0
 73 40  1  0  0  0  0
 76 41  1  0  0  0  0
 77 42  1  0  0  0  0
 80 43  1  0  0  0  0
M  END
$$$$
