O=P1(O)OC2=C(CC3=CC=C(C(F)(F)F)C=C3C(F)(F)F)C=C4C(C=CC=C4)=C2C5=C(O1)C(CC6=C(C(F)(F)F)C=C(C(F)(F)F)C=C6)=CC7=C5C=CC=C7
 OpenBabel09032010373D

 76 82  0  0  0  0  0  0  0  0999 V2000
    0.6989    2.6871    1.8830 O   0  0  0  0  0  0  0  0  0  0  0  0
    1.0480    1.4733    1.0817 P   0  0  0  0  0  0  0  0  0  0  0  0
    2.1230    0.5242    1.8088 O   0  0  0  0  0  0  0  0  0  0  0  0
    1.6984    1.7496   -0.3664 O   0  0  0  0  0  0  0  0  0  0  0  0
    1.7126    0.7819   -1.3437 C   0  0  0  0  0  0  0  0  0  0  0  0
    2.9767    0.4489   -1.8612 C   0  0  0  0  0  0  0  0  0  0  0  0
    4.2589    1.0855   -1.3527 C   0  0  0  0  0  0  0  0  0  0  0  0
    4.7782    0.4906   -0.0520 C   0  0  0  0  0  0  0  0  0  0  0  0
    4.9756   -0.9018    0.0311 C   0  0  0  0  0  0  0  0  0  0  0  0
    5.4113   -1.5032    1.2122 C   0  0  0  0  0  0  0  0  0  0  0  0
    5.6854   -0.7292    2.3430 C   0  0  0  0  0  0  0  0  0  0  0  0
    6.0941   -1.3885    3.6382 C   0  0  0  0  0  0  0  0  0  0  0  0
    5.0189   -1.8171    4.3539 F   0  0  0  0  0  0  0  0  0  0  0  0
    6.8799   -2.4853    3.4484 F   0  0  0  0  0  0  0  0  0  0  0  0
    6.7976   -0.5663    4.4641 F   0  0  0  0  0  0  0  0  0  0  0  0
    5.5293    0.6625    2.2596 C   0  0  0  0  0  0  0  0  0  0  0  0
    5.0933    1.2903    1.0728 C   0  0  0  0  0  0  0  0  0  0  0  0
    4.9670    2.8024    1.0537 C   0  0  0  0  0  0  0  0  0  0  0  0
    5.7024    3.3653    0.0533 F   0  0  0  0  0  0  0  0  0  0  0  0
    3.6893    3.2231    0.8662 F   0  0  0  0  0  0  0  0  0  0  0  0
    5.3960    3.4002    2.2002 F   0  0  0  0  0  0  0  0  0  0  0  0
    3.0510   -0.5010   -2.8826 C   0  0  0  0  0  0  0  0  0  0  0  0
    1.9080   -1.1492   -3.3519 C   0  0  0  0  0  0  0  0  0  0  0  0
    0.6315   -0.8019   -2.8368 C   0  0  0  0  0  0  0  0  0  0  0  0
   -0.4607   -1.5782   -3.3028 C   0  0  0  0  0  0  0  0  0  0  0  0
   -0.3159   -2.5827   -4.2638 C   0  0  0  0  0  0  0  0  0  0  0  0
    0.9362   -2.8625   -4.7854 C   0  0  0  0  0  0  0  0  0  0  0  0
    2.0420   -2.1534   -4.3263 C   0  0  0  0  0  0  0  0  0  0  0  0
    0.4992    0.2539   -1.8632 C   0  0  0  0  0  0  0  0  0  0  0  0
   -0.7869    0.7806   -1.4470 C   0  0  0  0  0  0  0  0  0  0  0  0
   -1.1167    0.8377   -0.0738 C   0  0  0  0  0  0  0  0  0  0  0  0
   -0.1719    0.4484    0.8426 O   0  0  0  0  0  0  0  0  0  0  0  0
   -2.3735    1.2174    0.4185 C   0  0  0  0  0  0  0  0  0  0  0  0
   -2.6996    1.2146    1.8996 C   0  0  0  0  0  0  0  0  0  0  0  0
   -3.4888   -0.0054    2.3511 C   0  0  0  0  0  0  0  0  0  0  0  0
   -4.8119    0.0734    2.8447 C   0  0  0  0  0  0  0  0  0  0  0  0
   -5.5474    1.3917    2.9832 C   0  0  0  0  0  0  0  0  0  0  0  0
   -4.9168    2.2581    3.8225 F   0  0  0  0  0  0  0  0  0  0  0  0
   -6.8114    1.2584    3.4770 F   0  0  0  0  0  0  0  0  0  0  0  0
   -5.6880    2.0442    1.7969 F   0  0  0  0  0  0  0  0  0  0  0  0
   -5.4688   -1.1153    3.2333 C   0  0  0  0  0  0  0  0  0  0  0  0
   -4.8380   -2.3671    3.1545 C   0  0  0  0  0  0  0  0  0  0  0  0
   -5.5636   -3.6322    3.5433 C   0  0  0  0  0  0  0  0  0  0  0  0
   -6.0916   -4.2758    2.4663 F   0  0  0  0  0  0  0  0  0  0  0  0
   -4.7578   -4.5381    4.1641 F   0  0  0  0  0  0  0  0  0  0  0  0
   -6.6035   -3.4150    4.3967 F   0  0  0  0  0  0  0  0  0  0  0  0
   -3.5274   -2.4277    2.6737 C   0  0  0  0  0  0  0  0  0  0  0  0
   -2.8623   -1.2648    2.2853 C   0  0  0  0  0  0  0  0  0  0  0  0
   -3.3495    1.5964   -0.5034 C   0  0  0  0  0  0  0  0  0  0  0  0
   -3.0784    1.6373   -1.8737 C   0  0  0  0  0  0  0  0  0  0  0  0
   -1.7996    1.2541   -2.3602 C   0  0  0  0  0  0  0  0  0  0  0  0
   -1.5862    1.4187   -3.7530 C   0  0  0  0  0  0  0  0  0  0  0  0
   -2.5863    1.8675   -4.6199 C   0  0  0  0  0  0  0  0  0  0  0  0
   -3.8380    2.1893   -4.1215 C   0  0  0  0  0  0  0  0  0  0  0  0
   -4.0791    2.0814   -2.7553 C   0  0  0  0  0  0  0  0  0  0  0  0
    2.3224   -0.2775    1.2941 H   0  0  0  0  0  0  0  0  0  0  0  0
    4.0889    2.1638   -1.2769 H   0  0  0  0  0  0  0  0  0  0  0  0
    5.0525    0.9831   -2.1052 H   0  0  0  0  0  0  0  0  0  0  0  0
    4.7840   -1.5414   -0.8293 H   0  0  0  0  0  0  0  0  0  0  0  0
    5.5363   -2.5855    1.2464 H   0  0  0  0  0  0  0  0  0  0  0  0
    5.7411    1.2715    3.1415 H   0  0  0  0  0  0  0  0  0  0  0  0
    4.0243   -0.7612   -3.2976 H   0  0  0  0  0  0  0  0  0  0  0  0
   -1.4631   -1.4152   -2.9095 H   0  0  0  0  0  0  0  0  0  0  0  0
   -1.1856   -3.1424   -4.5980 H   0  0  0  0  0  0  0  0  0  0  0  0
    1.0567   -3.6391   -5.5361 H   0  0  0  0  0  0  0  0  0  0  0  0
    3.0199   -2.4025   -4.7346 H   0  0  0  0  0  0  0  0  0  0  0  0
   -1.7863    1.2719    2.5047 H   0  0  0  0  0  0  0  0  0  0  0  0
   -3.2269    2.1462    2.1301 H   0  0  0  0  0  0  0  0  0  0  0  0
   -6.4934   -1.0645    3.6080 H   0  0  0  0  0  0  0  0  0  0  0  0
   -3.0132   -3.3853    2.5991 H   0  0  0  0  0  0  0  0  0  0  0  0
   -1.8382   -1.3490    1.9239 H   0  0  0  0  0  0  0  0  0  0  0  0
   -4.3327    1.8957   -0.1443 H   0  0  0  0  0  0  0  0  0  0  0  0
   -0.6126    1.2087   -4.1923 H   0  0  0  0  0  0  0  0  0  0  0  0
   -2.3785    1.9690   -5.6819 H   0  0  0  0  0  0  0  0  0  0  0  0
   -4.6189    2.5412   -4.7902 H   0  0  0  0  0  0  0  0  0  0  0  0
   -5.0600    2.3663   -2.3789 H   0  0  0  0  0  0  0  0  0  0  0  0
  2  3  1  0  0  0  0
  2  1  2  0  0  0  0
  4  2  1  0  0  0  0
  5  4  1  0  0  0  0
  6  7  1  0  0  0  0
  6  5  2  0  0  0  0
  7 57  1  0  0  0  0
  7  8  1  0  0  0  0
  8  9  2  0  0  0  0
  8 17  1  0  0  0  0
  9 10  1  0  0  0  0
 10 60  1  0  0  0  0
 10 11  2  0  0  0  0
 11 12  1  0  0  0  0
 12 13  1  0  0  0  0
 12 15  1  0  0  0  0
 14 12  1  0  0  0  0
 16 11  1  0  0  0  0
 16 61  1  0  0  0  0
 17 16  2  0  0  0  0
 18 17  1  0  0  0  0
 18 21  1  0  0  0  0
 19 18  1  0  0  0  0
 20 18  1  0  0  0  0
 22  6  1  0  0  0  0
 23 22  2  0  0  0  0
 23 24  1  0  0  0  0
 24 29  2  0  0  0  0
 25 63  1  0  0  0  0
 25 24  1  0  0  0  0
 26 25  2  0  0  0  0
 27 28  2  0  0  0  0
 27 26  1  0  0  0  0
 28 23  1  0  0  0  0
 29 30  1  0  0  0  0
 29  5  1  0  0  0  0
 30 31  2  0  0  0  0
 31 33  1  0  0  0  0
 31 32  1  0  0  0  0
 32  2  1  0  0  0  0
 33 34  1  0  0  0  0
 34 68  1  0  0  0  0
 34 35  1  0  0  0  0
 34 67  1  0  0  0  0
 35 36  1  0  0  0  0
 36 37  1  0  0  0  0
 36 41  2  0  0  0  0
 37 39  1  0  0  0  0
 37 38  1  0  0  0  0
 40 37  1  0  0  0  0
 41 69  1  0  0  0  0
 42 41  1  0  0  0  0
 42 43  1  0  0  0  0
 43 45  1  0  0  0  0
 43 46  1  0  0  0  0
 44 43  1  0  0  0  0
 47 42  2  0  0  0  0
 48 35  2  0  0  0  0
 48 47  1  0  0  0  0
 49 72  1  0  0  0  0
 49 33  2  0  0  0  0
 50 49  1  0  0  0  0
 51 50  1  0  0  0  0
 51 30  1  0  0  0  0
 52 51  2  0  0  0  0
 53 54  2  0  0  0  0
 53 52  1  0  0  0  0
 54 55  1  0  0  0  0
 55 76  1  0  0  0  0
 55 50  2  0  0  0  0
 56  3  1  0  0  0  0
 58  7  1  0  0  0  0
 59  9  1  0  0  0  0
 62 22  1  0  0  0  0
 64 26  1  0  0  0  0
 65 27  1  0  0  0  0
 66 28  1  0  0  0  0
 70 47  1  0  0  0  0
 71 48  1  0  0  0  0
 73 52  1  0  0  0  0
 74 53  1  0  0  0  0
 75 54  1  0  0  0  0
M  END
$$$$
