O=P1(O)OC2=C(C3=C(F)C=C(OC)C=C3F)C=C4C(C=CC=C4)=[C@]2[C@]5=C(O1)C(C6=C(F)C=C(OC)C=C6F)=CC7=C5C=CC=C7
 OpenBabel09032010373D

 66 72  0  0  0  0  0  0  0  0999 V2000
   -0.6362    2.5777   -0.8355 O   0  0  0  0  0  0  0  0  0  0  0  0
    0.0189    1.5256    0.0035 P   0  0  0  0  0  0  0  0  0  0  0  0
    0.9313    2.2004    1.1437 O   0  0  0  0  0  0  0  0  0  0  0  0
    1.0208    0.5312   -0.7676 O   0  0  0  0  0  0  0  0  0  0  0  0
    1.4924   -0.5859   -0.1093 C   0  0  0  0  0  0  0  0  0  0  0  0
    2.8770   -0.6242    0.1403 C   0  0  0  0  0  0  0  0  0  0  0  0
    3.7735    0.4730   -0.2539 C   0  0  0  0  0  0  0  0  0  0  0  0
    4.0148    0.7796   -1.5969 C   0  0  0  0  0  0  0  0  0  0  0  0
    3.4484    0.0469   -2.5680 F   0  0  0  0  0  0  0  0  0  0  0  0
    4.8513    1.8312   -1.9708 C   0  0  0  0  0  0  0  0  0  0  0  0
    5.4785    2.6126   -1.0009 C   0  0  0  0  0  0  0  0  0  0  0  0
    6.2709    3.6117   -1.4921 O   0  0  0  0  0  0  0  0  0  0  0  0
    6.9095    4.4563   -0.5416 C   0  0  0  0  0  0  0  0  0  0  0  0
    5.2624    2.3235    0.3435 C   0  0  0  0  0  0  0  0  0  0  0  0
    4.4216    1.2658    0.7006 C   0  0  0  0  0  0  0  0  0  0  0  0
    4.2450    1.0202    2.0087 F   0  0  0  0  0  0  0  0  0  0  0  0
    3.3908   -1.7465    0.7929 C   0  0  0  0  0  0  0  0  0  0  0  0
    2.5622   -2.7904    1.2142 C   0  0  0  0  0  0  0  0  0  0  0  0
    1.1658   -2.7436    0.9565 C   0  0  0  0  0  0  0  0  0  0  0  0
    0.3937   -3.7984    1.5087 C   0  0  0  0  0  0  0  0  0  0  0  0
    0.9654   -4.8649    2.2080 C   0  0  0  0  0  0  0  0  0  0  0  0
    2.3364   -4.9071    2.4000 C   0  0  0  0  0  0  0  0  0  0  0  0
    3.1277   -3.8716    1.9121 C   0  0  0  0  0  0  0  0  0  0  0  0
    0.5993   -1.6396    0.2205 C   0  0  0  0  0  0  0  0  0  0  0  0
   -0.7927   -1.5747   -0.1802 C   0  0  0  0  0  0  0  0  0  0  0  0
   -1.5790   -0.4504    0.1735 C   0  0  0  0  0  0  0  0  0  0  0  0
   -0.9821    0.5918    0.8486 O   0  0  0  0  0  0  0  0  0  0  0  0
   -2.9571   -0.3388   -0.0813 C   0  0  0  0  0  0  0  0  0  0  0  0
   -3.7315    0.8457    0.3168 C   0  0  0  0  0  0  0  0  0  0  0  0
   -4.2742    1.7149   -0.6368 C   0  0  0  0  0  0  0  0  0  0  0  0
   -4.1141    1.4589   -1.9449 F   0  0  0  0  0  0  0  0  0  0  0  0
   -4.9914    2.8592   -0.2783 C   0  0  0  0  0  0  0  0  0  0  0  0
   -5.1881    3.1601    1.0665 C   0  0  0  0  0  0  0  0  0  0  0  0
   -5.8643    4.2405    1.5595 O   0  0  0  0  0  0  0  0  0  0  0  0
   -6.3876    5.1623    0.6095 C   0  0  0  0  0  0  0  0  0  0  0  0
   -4.6661    2.3035    2.0355 C   0  0  0  0  0  0  0  0  0  0  0  0
   -3.9505    1.1669    1.6600 C   0  0  0  0  0  0  0  0  0  0  0  0
   -3.4735    0.3707    2.6293 F   0  0  0  0  0  0  0  0  0  0  0  0
   -3.5800   -1.3927   -0.7522 C   0  0  0  0  0  0  0  0  0  0  0  0
   -2.8595   -2.5090   -1.1888 C   0  0  0  0  0  0  0  0  0  0  0  0
   -1.4651   -2.6056   -0.9327 C   0  0  0  0  0  0  0  0  0  0  0  0
   -0.8002   -3.7221   -1.5016 C   0  0  0  0  0  0  0  0  0  0  0  0
   -1.4748   -4.7158   -2.2161 C   0  0  0  0  0  0  0  0  0  0  0  0
   -2.8435   -4.6194   -2.4064 C   0  0  0  0  0  0  0  0  0  0  0  0
   -3.5289   -3.5182   -1.9022 C   0  0  0  0  0  0  0  0  0  0  0  0
    0.5490    3.0550    1.4119 H   0  0  0  0  0  0  0  0  0  0  0  0
    5.0069    2.0339   -3.0266 H   0  0  0  0  0  0  0  0  0  0  0  0
    7.4872    5.2039   -1.0935 H   0  0  0  0  0  0  0  0  0  0  0  0
    6.1739    4.9881    0.0709 H   0  0  0  0  0  0  0  0  0  0  0  0
    7.6078    3.8889    0.0825 H   0  0  0  0  0  0  0  0  0  0  0  0
    5.7220    2.8908    1.1441 H   0  0  0  0  0  0  0  0  0  0  0  0
    4.4600   -1.7933    0.9976 H   0  0  0  0  0  0  0  0  0  0  0  0
   -0.6908   -3.7979    1.4128 H   0  0  0  0  0  0  0  0  0  0  0  0
    0.3318   -5.6536    2.6047 H   0  0  0  0  0  0  0  0  0  0  0  0
    2.7887   -5.7319    2.9438 H   0  0  0  0  0  0  0  0  0  0  0  0
    4.1999   -3.9087    2.0964 H   0  0  0  0  0  0  0  0  0  0  0  0
   -5.3717    3.4831   -1.0789 H   0  0  0  0  0  0  0  0  0  0  0  0
   -5.5870    5.6091    0.0109 H   0  0  0  0  0  0  0  0  0  0  0  0
   -6.8806    5.9679    1.1621 H   0  0  0  0  0  0  0  0  0  0  0  0
   -7.1397    4.6858   -0.0279 H   0  0  0  0  0  0  0  0  0  0  0  0
   -4.8097    2.5138    3.0913 H   0  0  0  0  0  0  0  0  0  0  0  0
   -4.6473   -1.3268   -0.9618 H   0  0  0  0  0  0  0  0  0  0  0  0
    0.2791   -3.8294   -1.4068 H   0  0  0  0  0  0  0  0  0  0  0  0
   -0.9222   -5.5568   -2.6265 H   0  0  0  0  0  0  0  0  0  0  0  0
   -3.3749   -5.3871   -2.9622 H   0  0  0  0  0  0  0  0  0  0  0  0
   -4.5994   -3.4463   -2.0862 H   0  0  0  0  0  0  0  0  0  0  0  0
  1  2  2  0  0  0  0
  2 27  1  0  0  0  0
  2  3  1  0  0  0  0
  3 46  1  0  0  0  0
  4  5  1  0  0  0  0
  4  2  1  0  0  0  0
  5  6  2  0  0  0  0
  5 24  1  0  0  0  0
  6 17  1  0  0  0  0
  7  6  1  0  0  0  0
  7 15  2  0  0  0  0
  8  7  1  0  0  0  0
  9  8  1  0  0  0  0
 10  8  2  0  0  0  0
 10 11  1  0  0  0  0
 11 14  2  0  0  0  0
 12 11  1  0  0  0  0
 12 13  1  0  0  0  0
 13 49  1  0  0  0  0
 13 50  1  0  0  0  0
 14 15  1  0  0  0  0
 14 51  1  0  0  0  0
 15 16  1  0  0  0  0
 17 52  1  0  0  0  0
 17 18  2  0  0  0  0
 18 23  1  0  0  0  0
 19 18  1  0  0  0  0
 19 20  1  0  0  0  0
 20 21  2  0  0  0  0
 21 22  1  0  0  0  0
 21 54  1  0  0  0  0
 22 55  1  0  0  0  0
 23 56  1  0  0  0  0
 23 22  2  0  0  0  0
 24 19  2  0  0  0  0
 25 26  2  0  0  0  0
 25 24  1  0  0  0  0
 26 27  1  0  0  0  0
 28 26  1  0  0  0  0
 28 29  1  0  0  0  0
 29 37  2  0  0  0  0
 30 32  2  0  0  0  0
 30 29  1  0  0  0  0
 31 30  1  0  0  0  0
 32 33  1  0  0  0  0
 33 34  1  0  0  0  0
 33 36  2  0  0  0  0
 35 59  1  0  0  0  0
 35 34  1  0  0  0  0
 36 61  1  0  0  0  0
 37 36  1  0  0  0  0
 37 38  1  0  0  0  0
 39 28  2  0  0  0  0
 40 41  1  0  0  0  0
 40 39  1  0  0  0  0
 41 25  1  0  0  0  0
 42 63  1  0  0  0  0
 42 41  2  0  0  0  0
 43 42  1  0  0  0  0
 44 43  2  0  0  0  0
 44 45  1  0  0  0  0
 45 40  2  0  0  0  0
 47 10  1  0  0  0  0
 48 13  1  0  0  0  0
 53 20  1  0  0  0  0
 57 32  1  0  0  0  0
 58 35  1  0  0  0  0
 60 35  1  0  0  0  0
 62 39  1  0  0  0  0
 64 43  1  0  0  0  0
 65 44  1  0  0  0  0
 66 45  1  0  0  0  0
M  END
$$$$
