O=P1(O)OC2=C(C3=CC=C(C(C)(C)C)C=C3)C=C4C(C=CC=C4)=C2C5=C(O1)C(C6=CC=C(C(C)(C)C)C=C6)=CC7=C5C=CC=C7
 OpenBabel09032010373D

 82 88  0  0  0  0  0  0  0  0999 V2000
    0.5874    1.5276    1.3714 O   0  0  0  0  0  0  0  0  0  0  0  0
   -0.0140    0.6494    0.3189 P   0  0  0  0  0  0  0  0  0  0  0  0
   -0.8906    1.4967   -0.7313 O   0  0  0  0  0  0  0  0  0  0  0  0
    1.0120   -0.1679   -0.6167 O   0  0  0  0  0  0  0  0  0  0  0  0
    1.5569   -1.3221   -0.0963 C   0  0  0  0  0  0  0  0  0  0  0  0
    2.9332   -1.3071    0.1848 C   0  0  0  0  0  0  0  0  0  0  0  0
    3.7734   -0.1305   -0.0659 C   0  0  0  0  0  0  0  0  0  0  0  0
    3.8680    0.9027    0.8696 C   0  0  0  0  0  0  0  0  0  0  0  0
    4.6737    2.0202    0.6229 C   0  0  0  0  0  0  0  0  0  0  0  0
    5.4180    2.1458   -0.5652 C   0  0  0  0  0  0  0  0  0  0  0  0
    6.2886    3.3916   -0.8026 C   0  0  0  0  0  0  0  0  0  0  0  0
    7.0478    3.3755   -2.1487 C   0  0  0  0  0  0  0  0  0  0  0  0
    5.4003    4.6544   -0.7942 C   0  0  0  0  0  0  0  0  0  0  0  0
    7.3466    3.5073    0.3160 C   0  0  0  0  0  0  0  0  0  0  0  0
    5.3172    1.1004   -1.4961 C   0  0  0  0  0  0  0  0  0  0  0  0
    4.5096   -0.0178   -1.2505 C   0  0  0  0  0  0  0  0  0  0  0  0
    3.5095   -2.4673    0.7039 C   0  0  0  0  0  0  0  0  0  0  0  0
    2.7434   -3.6061    0.9678 C   0  0  0  0  0  0  0  0  0  0  0  0
    1.3545   -3.6166    0.6689 C   0  0  0  0  0  0  0  0  0  0  0  0
    0.6399   -4.7804    1.0517 C   0  0  0  0  0  0  0  0  0  0  0  0
    1.2630   -5.8889    1.6315 C   0  0  0  0  0  0  0  0  0  0  0  0
    2.6280   -5.8671    1.8681 C   0  0  0  0  0  0  0  0  0  0  0  0
    3.3612   -4.7293    1.5438 C   0  0  0  0  0  0  0  0  0  0  0  0
    0.7344   -2.4669    0.0572 C   0  0  0  0  0  0  0  0  0  0  0  0
   -0.6364   -2.4411   -0.4146 C   0  0  0  0  0  0  0  0  0  0  0  0
   -1.5194   -1.4191    0.0148 C   0  0  0  0  0  0  0  0  0  0  0  0
   -1.0569   -0.4457    0.8728 O   0  0  0  0  0  0  0  0  0  0  0  0
   -2.8815   -1.3566   -0.3314 C   0  0  0  0  0  0  0  0  0  0  0  0
   -3.7621   -0.2722    0.1320 C   0  0  0  0  0  0  0  0  0  0  0  0
   -4.0727   -0.1125    1.4859 C   0  0  0  0  0  0  0  0  0  0  0  0
   -4.8993    0.9325    1.9157 C   0  0  0  0  0  0  0  0  0  0  0  0
   -5.4503    1.8579    1.0098 C   0  0  0  0  0  0  0  0  0  0  0  0
   -6.3556    2.9929    1.5195 C   0  0  0  0  0  0  0  0  0  0  0  0
   -6.8796    3.9232    0.4022 C   0  0  0  0  0  0  0  0  0  0  0  0
   -5.5716    3.8737    2.5163 C   0  0  0  0  0  0  0  0  0  0  0  0
   -7.5883    2.3944    2.2308 C   0  0  0  0  0  0  0  0  0  0  0  0
   -5.1361    1.6884   -0.3470 C   0  0  0  0  0  0  0  0  0  0  0  0
   -4.3076    0.6433   -0.7769 C   0  0  0  0  0  0  0  0  0  0  0  0
   -3.3868   -2.3559   -1.1642 C   0  0  0  0  0  0  0  0  0  0  0  0
   -2.5658   -3.3650   -1.6757 C   0  0  0  0  0  0  0  0  0  0  0  0
   -1.1873   -3.4081   -1.3333 C   0  0  0  0  0  0  0  0  0  0  0  0
   -0.4129   -4.4004   -1.9877 C   0  0  0  0  0  0  0  0  0  0  0  0
   -0.9703   -5.3350   -2.8648 C   0  0  0  0  0  0  0  0  0  0  0  0
   -2.3278   -5.2995   -3.1372 C   0  0  0  0  0  0  0  0  0  0  0  0
   -3.1181   -4.3153   -2.5514 C   0  0  0  0  0  0  0  0  0  0  0  0
   -1.4399    2.1492   -0.2598 H   0  0  0  0  0  0  0  0  0  0  0  0
    3.3037    0.8549    1.7994 H   0  0  0  0  0  0  0  0  0  0  0  0
    4.7021    2.7997    1.3811 H   0  0  0  0  0  0  0  0  0  0  0  0
    6.3587    3.3336   -3.0003 H   0  0  0  0  0  0  0  0  0  0  0  0
    7.6550    4.2805   -2.2707 H   0  0  0  0  0  0  0  0  0  0  0  0
    7.7287    2.5191   -2.2176 H   0  0  0  0  0  0  0  0  0  0  0  0
    4.6175    4.5911   -1.5594 H   0  0  0  0  0  0  0  0  0  0  0  0
    4.9049    4.8062    0.1710 H   0  0  0  0  0  0  0  0  0  0  0  0
    5.9919    5.5551   -0.9959 H   0  0  0  0  0  0  0  0  0  0  0  0
    6.8926    3.6367    1.3046 H   0  0  0  0  0  0  0  0  0  0  0  0
    7.9761    2.6104    0.3579 H   0  0  0  0  0  0  0  0  0  0  0  0
    8.0041    4.3688    0.1507 H   0  0  0  0  0  0  0  0  0  0  0  0
    5.8569    1.1250   -2.4384 H   0  0  0  0  0  0  0  0  0  0  0  0
    4.4522   -0.8030   -2.0019 H   0  0  0  0  0  0  0  0  0  0  0  0
    4.5760   -2.4659    0.9285 H   0  0  0  0  0  0  0  0  0  0  0  0
   -0.4383   -4.8363    0.9118 H   0  0  0  0  0  0  0  0  0  0  0  0
    0.6742   -6.7618    1.9005 H   0  0  0  0  0  0  0  0  0  0  0  0
    3.1203   -6.7241    2.3192 H   0  0  0  0  0  0  0  0  0  0  0  0
    4.4283   -4.7213    1.7595 H   0  0  0  0  0  0  0  0  0  0  0  0
   -3.6704   -0.8044    2.2238 H   0  0  0  0  0  0  0  0  0  0  0  0
   -5.1071    1.0096    2.9812 H   0  0  0  0  0  0  0  0  0  0  0  0
   -6.0583    4.4166   -0.1303 H   0  0  0  0  0  0  0  0  0  0  0  0
   -7.4813    3.3737   -0.3312 H   0  0  0  0  0  0  0  0  0  0  0  0
   -7.5177    4.7144    0.8139 H   0  0  0  0  0  0  0  0  0  0  0  0
   -6.1835    4.7124    2.8687 H   0  0  0  0  0  0  0  0  0  0  0  0
   -4.6708    4.2906    2.0503 H   0  0  0  0  0  0  0  0  0  0  0  0
   -5.2541    3.3145    3.4032 H   0  0  0  0  0  0  0  0  0  0  0  0
   -8.2684    3.1829    2.5737 H   0  0  0  0  0  0  0  0  0  0  0  0
   -7.3128    1.8042    3.1117 H   0  0  0  0  0  0  0  0  0  0  0  0
   -8.1517    1.7373    1.5577 H   0  0  0  0  0  0  0  0  0  0  0  0
   -5.5241    2.3595   -1.1084 H   0  0  0  0  0  0  0  0  0  0  0  0
   -4.0793    0.5568   -1.8384 H   0  0  0  0  0  0  0  0  0  0  0  0
   -4.4419   -2.3287   -1.4356 H   0  0  0  0  0  0  0  0  0  0  0  0
    0.6632   -4.4528   -1.8324 H   0  0  0  0  0  0  0  0  0  0  0  0
   -0.3354   -6.0809   -3.3355 H   0  0  0  0  0  0  0  0  0  0  0  0
   -2.7695   -6.0210   -3.8187 H   0  0  0  0  0  0  0  0  0  0  0  0
   -4.1775   -4.2864   -2.8000 H   0  0  0  0  0  0  0  0  0  0  0  0
  2 27  1  0  0  0  0
  2  1  2  0  0  0  0
  3 46  1  0  0  0  0
  3  2  1  0  0  0  0
  4  5  1  0  0  0  0
  4  2  1  0  0  0  0
  5 24  2  0  0  0  0
  5  6  1  0  0  0  0
  6 17  2  0  0  0  0
  7  6  1  0  0  0  0
  7  8  2  0  0  0  0
  8 47  1  0  0  0  0
  9  8  1  0  0  0  0
  9 48  1  0  0  0  0
 10  9  2  0  0  0  0
 11 13  1  0  0  0  0
 11 10  1  0  0  0  0
 11 14  1  0  0  0  0
 12 11  1  0  0  0  0
 13 53  1  0  0  0  0
 14 56  1  0  0  0  0
 14 55  1  0  0  0  0
 15 16  2  0  0  0  0
 15 10  1  0  0  0  0
 16  7  1  0  0  0  0
 17 60  1  0  0  0  0
 17 18  1  0  0  0  0
 18 23  1  0  0  0  0
 19 18  2  0  0  0  0
 19 20  1  0  0  0  0
 20 21  2  0  0  0  0
 21 22  1  0  0  0  0
 21 62  1  0  0  0  0
 22 63  1  0  0  0  0
 23 64  1  0  0  0  0
 23 22  2  0  0  0  0
 24 19  1  0  0  0  0
 25 26  2  0  0  0  0
 25 24  1  0  0  0  0
 26 27  1  0  0  0  0
 28 26  1  0  0  0  0
 28 29  1  0  0  0  0
 29 30  2  0  0  0  0
 30 31  1  0  0  0  0
 30 65  1  0  0  0  0
 31 66  1  0  0  0  0
 32 33  1  0  0  0  0
 32 31  2  0  0  0  0
 33 36  1  0  0  0  0
 33 35  1  0  0  0  0
 34 69  1  0  0  0  0
 34 33  1  0  0  0  0
 35 70  1  0  0  0  0
 35 72  1  0  0  0  0
 36 73  1  0  0  0  0
 36 74  1  0  0  0  0
 37 32  1  0  0  0  0
 38 37  2  0  0  0  0
 38 29  1  0  0  0  0
 39 28  2  0  0  0  0
 40 41  1  0  0  0  0
 40 39  1  0  0  0  0
 41 25  1  0  0  0  0
 42 79  1  0  0  0  0
 42 41  2  0  0  0  0
 43 42  1  0  0  0  0
 44 43  2  0  0  0  0
 44 45  1  0  0  0  0
 45 40  2  0  0  0  0
 49 12  1  0  0  0  0
 50 12  1  0  0  0  0
 51 12  1  0  0  0  0
 52 13  1  0  0  0  0
 54 13  1  0  0  0  0
 57 14  1  0  0  0  0
 58 15  1  0  0  0  0
 59 16  1  0  0  0  0
 61 20  1  0  0  0  0
 67 34  1  0  0  0  0
 68 34  1  0  0  0  0
 71 35  1  0  0  0  0
 75 36  1  0  0  0  0
 76 37  1  0  0  0  0
 77 38  1  0  0  0  0
 78 39  1  0  0  0  0
 80 43  1  0  0  0  0
 81 44  1  0  0  0  0
 82 45  1  0  0  0  0
M  END
$$$$
