O=P1(O)OC2=C(C3=C(C4=CC(C=CC=C5)=C5C=C4)C=CC=C3)C=C6C(CCCC6)=C2C7=C(O1)C(C8=CC=CC=C8C9=CC=C(C=CC=C%10)C%10=C9)=CC%11=C7CCCC%11
 OpenBabel09032010383D

 98108  0  0  0  0  0  0  0  0999 V2000
   -0.9898   -3.6124    2.1319 O   0  0  0  0  0  0  0  0  0  0  0  0
   -0.6539   -3.1341    0.7532 P   0  0  0  0  0  0  0  0  0  0  0  0
   -0.7885   -4.2857   -0.3660 O   0  0  0  0  0  0  0  0  0  0  0  0
    0.8633   -2.6335    0.5719 O   0  0  0  0  0  0  0  0  0  0  0  0
    1.2419   -1.9297   -0.5474 C   0  0  0  0  0  0  0  0  0  0  0  0
    2.2507   -2.5020   -1.3463 C   0  0  0  0  0  0  0  0  0  0  0  0
    2.9521   -3.7502   -0.9700 C   0  0  0  0  0  0  0  0  0  0  0  0
    3.7940   -3.8344    0.1732 C   0  0  0  0  0  0  0  0  0  0  0  0
    4.0194   -2.6833    1.0673 C   0  0  0  0  0  0  0  0  0  0  0  0
    4.7280   -1.5534    0.6283 C   0  0  0  0  0  0  0  0  0  0  0  0
    4.8448   -0.4065    1.4303 C   0  0  0  0  0  0  0  0  0  0  0  0
    5.5156    0.7387    0.9738 C   0  0  0  0  0  0  0  0  0  0  0  0
    5.5863    1.8843    1.7670 C   0  0  0  0  0  0  0  0  0  0  0  0
    4.9952    1.8972    3.0269 C   0  0  0  0  0  0  0  0  0  0  0  0
    4.3387    0.7619    3.5015 C   0  0  0  0  0  0  0  0  0  0  0  0
    4.2548   -0.3963    2.7143 C   0  0  0  0  0  0  0  0  0  0  0  0
    3.5854   -1.5391    3.1711 C   0  0  0  0  0  0  0  0  0  0  0  0
    3.4723   -2.6686    2.3580 C   0  0  0  0  0  0  0  0  0  0  0  0
    4.4236   -5.0587    0.4678 C   0  0  0  0  0  0  0  0  0  0  0  0
    4.2385   -6.1791   -0.3419 C   0  0  0  0  0  0  0  0  0  0  0  0
    3.4195   -6.0972   -1.4619 C   0  0  0  0  0  0  0  0  0  0  0  0
    2.7845   -4.8948   -1.7741 C   0  0  0  0  0  0  0  0  0  0  0  0
    2.6144   -1.8305   -2.5167 C   0  0  0  0  0  0  0  0  0  0  0  0
    1.9804   -0.6425   -2.9018 C   0  0  0  0  0  0  0  0  0  0  0  0
    1.0059   -0.0581   -2.0567 C   0  0  0  0  0  0  0  0  0  0  0  0
    0.1803    1.1050   -2.5962 C   0  0  0  0  0  0  0  0  0  0  0  0
    0.8934    1.9152   -3.6749 C   0  0  0  0  0  0  0  0  0  0  0  0
    1.4082    0.9896   -4.7645 C   0  0  0  0  0  0  0  0  0  0  0  0
    2.4261    0.0135   -4.1888 C   0  0  0  0  0  0  0  0  0  0  0  0
    0.6666   -0.6647   -0.8072 C   0  0  0  0  0  0  0  0  0  0  0  0
   -0.1901   -0.0446    0.1650 C   0  0  0  0  0  0  0  0  0  0  0  0
   -1.3691   -0.6940    0.5921 C   0  0  0  0  0  0  0  0  0  0  0  0
   -1.6070   -1.9766    0.1549 O   0  0  0  0  0  0  0  0  0  0  0  0
   -2.3365   -0.0846    1.4077 C   0  0  0  0  0  0  0  0  0  0  0  0
   -3.6176   -0.7373    1.7341 C   0  0  0  0  0  0  0  0  0  0  0  0
   -3.6574   -1.6916    2.7676 C   0  0  0  0  0  0  0  0  0  0  0  0
   -4.8482   -2.3272    3.1194 C   0  0  0  0  0  0  0  0  0  0  0  0
   -6.0249   -2.0145    2.4497 C   0  0  0  0  0  0  0  0  0  0  0  0
   -6.0104   -1.0671    1.4262 C   0  0  0  0  0  0  0  0  0  0  0  0
   -4.8183   -0.4178    1.0498 C   0  0  0  0  0  0  0  0  0  0  0  0
   -4.8646    0.5709   -0.0414 C   0  0  0  0  0  0  0  0  0  0  0  0
   -4.3330    0.2764   -1.3033 C   0  0  0  0  0  0  0  0  0  0  0  0
   -4.3704    1.2193   -2.3337 C   0  0  0  0  0  0  0  0  0  0  0  0
   -4.9484    2.4806   -2.1286 C   0  0  0  0  0  0  0  0  0  0  0  0
   -4.9966    3.4394   -3.1534 C   0  0  0  0  0  0  0  0  0  0  0  0
   -5.5783    4.6892   -2.9343 C   0  0  0  0  0  0  0  0  0  0  0  0
   -6.1179    4.9963   -1.6887 C   0  0  0  0  0  0  0  0  0  0  0  0
   -6.0768    4.0546   -0.6595 C   0  0  0  0  0  0  0  0  0  0  0  0
   -5.4957    2.7922   -0.8639 C   0  0  0  0  0  0  0  0  0  0  0  0
   -5.4468    1.8326    0.1619 C   0  0  0  0  0  0  0  0  0  0  0  0
   -2.0639    1.1945    1.8994 C   0  0  0  0  0  0  0  0  0  0  0  0
   -0.8596    1.8484    1.6062 C   0  0  0  0  0  0  0  0  0  0  0  0
    0.0899    1.2240    0.7650 C   0  0  0  0  0  0  0  0  0  0  0  0
    1.4440    1.8895    0.5503 C   0  0  0  0  0  0  0  0  0  0  0  0
    1.7825    2.9519    1.5937 C   0  0  0  0  0  0  0  0  0  0  0  0
    0.6176    3.9171    1.7385 C   0  0  0  0  0  0  0  0  0  0  0  0
   -0.6049    3.1806    2.2729 C   0  0  0  0  0  0  0  0  0  0  0  0
   -0.5412   -3.9549   -1.2460 H   0  0  0  0  0  0  0  0  0  0  0  0
    5.1631   -1.5578   -0.3692 H   0  0  0  0  0  0  0  0  0  0  0  0
    5.9853    0.7500   -0.0077 H   0  0  0  0  0  0  0  0  0  0  0  0
    6.1029    2.7668    1.3992 H   0  0  0  0  0  0  0  0  0  0  0  0
    5.0487    2.7900    3.6439 H   0  0  0  0  0  0  0  0  0  0  0  0
    3.8844    0.7897    4.4893 H   0  0  0  0  0  0  0  0  0  0  0  0
    3.1230   -1.5535    4.1553 H   0  0  0  0  0  0  0  0  0  0  0  0
    2.9066   -3.5253    2.7206 H   0  0  0  0  0  0  0  0  0  0  0  0
    5.0695   -5.1394    1.3406 H   0  0  0  0  0  0  0  0  0  0  0  0
    4.7331   -7.1147   -0.0938 H   0  0  0  0  0  0  0  0  0  0  0  0
    3.2702   -6.9702   -2.0915 H   0  0  0  0  0  0  0  0  0  0  0  0
    2.1440   -4.8552   -2.6526 H   0  0  0  0  0  0  0  0  0  0  0  0
    3.4034   -2.2436   -3.1447 H   0  0  0  0  0  0  0  0  0  0  0  0
   -0.7388    0.6778   -3.0197 H   0  0  0  0  0  0  0  0  0  0  0  0
   -0.1355    1.7974   -1.8147 H   0  0  0  0  0  0  0  0  0  0  0  0
    0.1994    2.6471   -4.1033 H   0  0  0  0  0  0  0  0  0  0  0  0
    1.7274    2.4767   -3.2356 H   0  0  0  0  0  0  0  0  0  0  0  0
    1.8686    1.5714   -5.5708 H   0  0  0  0  0  0  0  0  0  0  0  0
    0.5689    0.4371   -5.2057 H   0  0  0  0  0  0  0  0  0  0  0  0
    2.6400   -0.7520   -4.9446 H   0  0  0  0  0  0  0  0  0  0  0  0
    3.3645    0.5453   -3.9861 H   0  0  0  0  0  0  0  0  0  0  0  0
   -2.7467   -1.9520    3.3053 H   0  0  0  0  0  0  0  0  0  0  0  0
   -4.8504   -3.0687    3.9139 H   0  0  0  0  0  0  0  0  0  0  0  0
   -6.9538   -2.5095    2.7197 H   0  0  0  0  0  0  0  0  0  0  0  0
   -6.9397   -0.8375    0.9077 H   0  0  0  0  0  0  0  0  0  0  0  0
   -3.8802   -0.6958   -1.4881 H   0  0  0  0  0  0  0  0  0  0  0  0
   -3.9443    0.9579   -3.2991 H   0  0  0  0  0  0  0  0  0  0  0  0
   -4.5800    3.2169   -4.1330 H   0  0  0  0  0  0  0  0  0  0  0  0
   -5.6104    5.4215   -3.7366 H   0  0  0  0  0  0  0  0  0  0  0  0
   -6.5721    5.9687   -1.5167 H   0  0  0  0  0  0  0  0  0  0  0  0
   -6.5040    4.3133    0.3068 H   0  0  0  0  0  0  0  0  0  0  0  0
   -5.8609    2.0698    1.1405 H   0  0  0  0  0  0  0  0  0  0  0  0
   -2.7950    1.6818    2.5437 H   0  0  0  0  0  0  0  0  0  0  0  0
    1.4617    2.3649   -0.4351 H   0  0  0  0  0  0  0  0  0  0  0  0
    2.2366    1.1340    0.5725 H   0  0  0  0  0  0  0  0  0  0  0  0
    1.9997    2.4787    2.5596 H   0  0  0  0  0  0  0  0  0  0  0  0
    2.6856    3.4921    1.2884 H   0  0  0  0  0  0  0  0  0  0  0  0
    0.8817    4.7359    2.4169 H   0  0  0  0  0  0  0  0  0  0  0  0
    0.3875    4.3681    0.7649 H   0  0  0  0  0  0  0  0  0  0  0  0
   -1.4840    3.8261    2.1573 H   0  0  0  0  0  0  0  0  0  0  0  0
   -0.4683    2.9979    3.3466 H   0  0  0  0  0  0  0  0  0  0  0  0
  2  1  2  0  0  0  0
  3  2  1  0  0  0  0
  4  2  1  0  0  0  0
  5  4  1  0  0  0  0
  6  7  1  0  0  0  0
  6  5  2  0  0  0  0
  7  8  2  0  0  0  0
  8 19  1  0  0  0  0
  8  9  1  0  0  0  0
  9 18  1  0  0  0  0
 10  9  2  0  0  0  0
 10 11  1  0  0  0  0
 11 16  1  0  0  0  0
 12 11  2  0  0  0  0
 12 13  1  0  0  0  0
 13 14  2  0  0  0  0
 14 15  1  0  0  0  0
 14 62  1  0  0  0  0
 15 63  1  0  0  0  0
 16 17  1  0  0  0  0
 16 15  2  0  0  0  0
 17 64  1  0  0  0  0
 18 65  1  0  0  0  0
 18 17  2  0  0  0  0
 19 66  1  0  0  0  0
 20 67  1  0  0  0  0
 20 19  2  0  0  0  0
 21 20  1  0  0  0  0
 22 21  2  0  0  0  0
 22  7  1  0  0  0  0
 23  6  1  0  0  0  0
 24 23  2  0  0  0  0
 24 25  1  0  0  0  0
 25 30  2  0  0  0  0
 26 25  1  0  0  0  0
 26 72  1  0  0  0  0
 27 74  1  0  0  0  0
 27 26  1  0  0  0  0
 28 29  1  0  0  0  0
 28 27  1  0  0  0  0
 29 78  1  0  0  0  0
 29 24  1  0  0  0  0
 30  5  1  0  0  0  0
 30 31  1  0  0  0  0
 31 32  2  0  0  0  0
 31 53  1  0  0  0  0
 32 34  1  0  0  0  0
 33 32  1  0  0  0  0
 33  2  1  0  0  0  0
 34 35  1  0  0  0  0
 34 51  2  0  0  0  0
 35 36  2  0  0  0  0
 36 37  1  0  0  0  0
 36 79  1  0  0  0  0
 37 80  1  0  0  0  0
 38 81  1  0  0  0  0
 38 37  2  0  0  0  0
 39 38  1  0  0  0  0
 40 39  2  0  0  0  0
 40 35  1  0  0  0  0
 41 50  1  0  0  0  0
 41 40  1  0  0  0  0
 42 41  2  0  0  0  0
 43 44  2  0  0  0  0
 43 42  1  0  0  0  0
 44 49  1  0  0  0  0
 45 46  2  0  0  0  0
 45 44  1  0  0  0  0
 46 47  1  0  0  0  0
 47 87  1  0  0  0  0
 47 48  2  0  0  0  0
 48 88  1  0  0  0  0
 49 48  1  0  0  0  0
 49 50  2  0  0  0  0
 50 89  1  0  0  0  0
 51 90  1  0  0  0  0
 52 51  1  0  0  0  0
 52 57  1  0  0  0  0
 53 52  2  0  0  0  0
 54 92  1  0  0  0  0
 54 53  1  0  0  0  0
 54 55  1  0  0  0  0
 55 56  1  0  0  0  0
 55 93  1  0  0  0  0
 56 57  1  0  0  0  0
 56 95  1  0  0  0  0
 57 98  1  0  0  0  0
 58  3  1  0  0  0  0
 59 10  1  0  0  0  0
 60 12  1  0  0  0  0
 61 13  1  0  0  0  0
 68 21  1  0  0  0  0
 69 22  1  0  0  0  0
 70 23  1  0  0  0  0
 71 26  1  0  0  0  0
 73 27  1  0  0  0  0
 75 28  1  0  0  0  0
 76 28  1  0  0  0  0
 77 29  1  0  0  0  0
 82 39  1  0  0  0  0
 83 42  1  0  0  0  0
 84 43  1  0  0  0  0
 85 45  1  0  0  0  0
 86 46  1  0  0  0  0
 91 54  1  0  0  0  0
 94 55  1  0  0  0  0
 96 56  1  0  0  0  0
 97 57  1  0  0  0  0
M  END
$$$$
