O=P1(O)OC2=C(C3=CC(C(F)(F)F)=CC(C(F)(F)F)=C3)C=C4C(C=CC=C4)=C2C5=C(O1)C(C6=CC(C(F)(F)F)=CC(C(F)(F)F)=C6)=CC7=C5C=CC=C7
 OpenBabel09032010373D

 70 76  0  0  0  0  0  0  0  0999 V2000
   -2.1143    1.7696   -0.3001 O   0  0  0  0  0  0  0  0  0  0  0  0
   -1.0570    0.9845    0.4101 P   0  0  0  0  0  0  0  0  0  0  0  0
   -1.0261    1.3626    1.9725 O   0  0  0  0  0  0  0  0  0  0  0  0
   -1.2542   -0.6117    0.4169 O   0  0  0  0  0  0  0  0  0  0  0  0
   -0.8026   -1.3100   -0.6834 C   0  0  0  0  0  0  0  0  0  0  0  0
   -1.7827   -1.8813   -1.5144 C   0  0  0  0  0  0  0  0  0  0  0  0
   -3.2130   -1.6319   -1.3073 C   0  0  0  0  0  0  0  0  0  0  0  0
   -4.0313   -2.5499   -0.6363 C   0  0  0  0  0  0  0  0  0  0  0  0
   -5.3902   -2.2742   -0.4050 C   0  0  0  0  0  0  0  0  0  0  0  0
   -6.2521   -3.2596    0.3485 C   0  0  0  0  0  0  0  0  0  0  0  0
   -6.2438   -3.0310    1.6901 F   0  0  0  0  0  0  0  0  0  0  0  0
   -7.5598   -3.2210   -0.0306 F   0  0  0  0  0  0  0  0  0  0  0  0
   -5.8554   -4.5519    0.1839 F   0  0  0  0  0  0  0  0  0  0  0  0
   -5.9197   -1.0452   -0.8365 C   0  0  0  0  0  0  0  0  0  0  0  0
   -5.1206   -0.1155   -1.5190 C   0  0  0  0  0  0  0  0  0  0  0  0
   -5.6544    1.2326   -1.9387 C   0  0  0  0  0  0  0  0  0  0  0  0
   -5.1374    1.6697   -3.1206 F   0  0  0  0  0  0  0  0  0  0  0  0
   -7.0082    1.2321   -2.1079 F   0  0  0  0  0  0  0  0  0  0  0  0
   -5.3953    2.2059   -1.0241 F   0  0  0  0  0  0  0  0  0  0  0  0
   -3.7784   -0.4321   -1.7617 C   0  0  0  0  0  0  0  0  0  0  0  0
   -1.3607   -2.6526   -2.5946 C   0  0  0  0  0  0  0  0  0  0  0  0
   -0.0034   -2.8135   -2.8826 C   0  0  0  0  0  0  0  0  0  0  0  0
    0.9828   -2.2069   -2.0561 C   0  0  0  0  0  0  0  0  0  0  0  0
    2.3248   -2.3278   -2.4994 C   0  0  0  0  0  0  0  0  0  0  0  0
    2.6797   -3.0574   -3.6380 C   0  0  0  0  0  0  0  0  0  0  0  0
    1.6989   -3.6806   -4.3916 C   0  0  0  0  0  0  0  0  0  0  0  0
    0.3649   -3.5526   -4.0190 C   0  0  0  0  0  0  0  0  0  0  0  0
    0.5929   -1.4686   -0.8777 C   0  0  0  0  0  0  0  0  0  0  0  0
    1.5358   -0.8959    0.0684 C   0  0  0  0  0  0  0  0  0  0  0  0
    1.4650    0.4810    0.4109 C   0  0  0  0  0  0  0  0  0  0  0  0
    0.4423    1.2480   -0.1033 O   0  0  0  0  0  0  0  0  0  0  0  0
    2.4104    1.1545    1.2118 C   0  0  0  0  0  0  0  0  0  0  0  0
    2.2979    2.5941    1.5414 C   0  0  0  0  0  0  0  0  0  0  0  0
    2.0526    3.5604    0.5514 C   0  0  0  0  0  0  0  0  0  0  0  0
    1.8554    4.9149    0.8685 C   0  0  0  0  0  0  0  0  0  0  0  0
    1.5191    5.8970   -0.2289 C   0  0  0  0  0  0  0  0  0  0  0  0
    1.0509    7.0872    0.2401 F   0  0  0  0  0  0  0  0  0  0  0  0
    2.5969    6.1984   -1.0034 F   0  0  0  0  0  0  0  0  0  0  0  0
    0.5606    5.4273   -1.0760 F   0  0  0  0  0  0  0  0  0  0  0  0
    1.9753    5.3226    2.2047 C   0  0  0  0  0  0  0  0  0  0  0  0
    2.2619    4.3930    3.2152 C   0  0  0  0  0  0  0  0  0  0  0  0
    2.3738    4.8166    4.6602 C   0  0  0  0  0  0  0  0  0  0  0  0
    3.3839    4.1837    5.3191 F   0  0  0  0  0  0  0  0  0  0  0  0
    1.2402    4.5517    5.3650 F   0  0  0  0  0  0  0  0  0  0  0  0
    2.6081    6.1497    4.8131 F   0  0  0  0  0  0  0  0  0  0  0  0
    2.3985    3.0367    2.8718 C   0  0  0  0  0  0  0  0  0  0  0  0
    3.4660    0.3960    1.7226 C   0  0  0  0  0  0  0  0  0  0  0  0
    3.5575   -0.9821    1.5026 C   0  0  0  0  0  0  0  0  0  0  0  0
    2.5891   -1.6455    0.7025 C   0  0  0  0  0  0  0  0  0  0  0  0
    2.7007   -3.0566    0.6244 C   0  0  0  0  0  0  0  0  0  0  0  0
    3.7384   -3.7620    1.2389 C   0  0  0  0  0  0  0  0  0  0  0  0
    4.6992   -3.0818    1.9690 C   0  0  0  0  0  0  0  0  0  0  0  0
    4.6047   -1.7005    2.1041 C   0  0  0  0  0  0  0  0  0  0  0  0
   -1.8861    1.7378    2.2374 H   0  0  0  0  0  0  0  0  0  0  0  0
   -3.6008   -3.4839   -0.2736 H   0  0  0  0  0  0  0  0  0  0  0  0
   -6.9658   -0.8087   -0.6341 H   0  0  0  0  0  0  0  0  0  0  0  0
   -3.1521    0.2917   -2.2872 H   0  0  0  0  0  0  0  0  0  0  0  0
   -2.1101   -3.0982   -3.2481 H   0  0  0  0  0  0  0  0  0  0  0  0
    3.1333   -1.8345   -1.9625 H   0  0  0  0  0  0  0  0  0  0  0  0
    3.7241   -3.1269   -3.9322 H   0  0  0  0  0  0  0  0  0  0  0  0
    1.9664   -4.2484   -5.2785 H   0  0  0  0  0  0  0  0  0  0  0  0
   -0.3931   -4.0252   -4.6413 H   0  0  0  0  0  0  0  0  0  0  0  0
    1.9819    3.2537   -0.4937 H   0  0  0  0  0  0  0  0  0  0  0  0
    1.8357    6.3738    2.4623 H   0  0  0  0  0  0  0  0  0  0  0  0
    2.5680    2.3096    3.6676 H   0  0  0  0  0  0  0  0  0  0  0  0
    4.2240    0.8879    2.3313 H   0  0  0  0  0  0  0  0  0  0  0  0
    1.9599   -3.6435    0.0832 H   0  0  0  0  0  0  0  0  0  0  0  0
    3.7836   -4.8439    1.1454 H   0  0  0  0  0  0  0  0  0  0  0  0
    5.5097   -3.6240    2.4484 H   0  0  0  0  0  0  0  0  0  0  0  0
    5.3540   -1.1875    2.7044 H   0  0  0  0  0  0  0  0  0  0  0  0
  1  2  2  0  0  0  0
  2  4  1  0  0  0  0
  2  3  1  0  0  0  0
  3 54  1  0  0  0  0
  5  4  1  0  0  0  0
  6  7  1  0  0  0  0
  6  5  2  0  0  0  0
  7  8  2  0  0  0  0
  8  9  1  0  0  0  0
  8 55  1  0  0  0  0
  9 10  1  0  0  0  0
 10 11  1  0  0  0  0
 12 10  1  0  0  0  0
 13 10  1  0  0  0  0
 14 56  1  0  0  0  0
 14  9  2  0  0  0  0
 15 14  1  0  0  0  0
 16 15  1  0  0  0  0
 16 19  1  0  0  0  0
 17 16  1  0  0  0  0
 18 16  1  0  0  0  0
 20 15  2  0  0  0  0
 20  7  1  0  0  0  0
 21  6  1  0  0  0  0
 22 21  2  0  0  0  0
 22 23  1  0  0  0  0
 23 28  2  0  0  0  0
 24 23  1  0  0  0  0
 24 59  1  0  0  0  0
 25 24  2  0  0  0  0
 26 27  2  0  0  0  0
 26 25  1  0  0  0  0
 27 22  1  0  0  0  0
 28  5  1  0  0  0  0
 28 29  1  0  0  0  0
 29 30  2  0  0  0  0
 29 49  1  0  0  0  0
 30 32  1  0  0  0  0
 31  2  1  0  0  0  0
 31 30  1  0  0  0  0
 32 33  1  0  0  0  0
 32 47  2  0  0  0  0
 33 46  2  0  0  0  0
 34 35  2  0  0  0  0
 34 33  1  0  0  0  0
 35 40  1  0  0  0  0
 36 37  1  0  0  0  0
 36 35  1  0  0  0  0
 38 36  1  0  0  0  0
 39 36  1  0  0  0  0
 40 64  1  0  0  0  0
 40 41  2  0  0  0  0
 41 42  1  0  0  0  0
 42 45  1  0  0  0  0
 42 43  1  0  0  0  0
 42 44  1  0  0  0  0
 46 41  1  0  0  0  0
 46 65  1  0  0  0  0
 47 66  1  0  0  0  0
 48 47  1  0  0  0  0
 48 53  2  0  0  0  0
 49 48  1  0  0  0  0
 50 49  2  0  0  0  0
 50 51  1  0  0  0  0
 51 52  2  0  0  0  0
 52 53  1  0  0  0  0
 52 69  1  0  0  0  0
 53 70  1  0  0  0  0
 57 20  1  0  0  0  0
 58 21  1  0  0  0  0
 60 25  1  0  0  0  0
 61 26  1  0  0  0  0
 62 27  1  0  0  0  0
 63 34  1  0  0  0  0
 67 50  1  0  0  0  0
 68 51  1  0  0  0  0
M  END
$$$$
