O=P1(O)OC2=C(C3=CC(COC)=CC=C3)C=C4C(C=CC=C4)=C2C5=C(O1)C(C6=CC=CC(COC)=C6)=CC7=C5C=CC=C7
 OpenBabel09032010383D

 72 78  0  0  0  0  0  0  0  0999 V2000
   -0.3457    2.2439   -0.4627 O   0  0  0  0  0  0  0  0  0  0  0  0
    0.3383    1.2120    0.3826 P   0  0  0  0  0  0  0  0  0  0  0  0
    1.2485    1.8944    1.5173 O   0  0  0  0  0  0  0  0  0  0  0  0
    1.3372    0.2427   -0.4277 O   0  0  0  0  0  0  0  0  0  0  0  0
    1.8484   -0.8983    0.1553 C   0  0  0  0  0  0  0  0  0  0  0  0
    3.2574   -0.9673    0.2479 C   0  0  0  0  0  0  0  0  0  0  0  0
    4.0991    0.1410   -0.2219 C   0  0  0  0  0  0  0  0  0  0  0  0
    4.1023    1.3485    0.4836 C   0  0  0  0  0  0  0  0  0  0  0  0
    4.6445    2.5155   -0.0663 C   0  0  0  0  0  0  0  0  0  0  0  0
    4.3682    3.8319    0.6093 C   0  0  0  0  0  0  0  0  0  0  0  0
    2.9437    4.0257    0.7062 O   0  0  0  0  0  0  0  0  0  0  0  0
    2.4051    4.6484   -0.4610 C   0  0  0  0  0  0  0  0  0  0  0  0
    5.3426    2.4310   -1.2737 C   0  0  0  0  0  0  0  0  0  0  0  0
    5.4435    1.2072   -1.9393 C   0  0  0  0  0  0  0  0  0  0  0  0
    4.8046    0.0736   -1.4290 C   0  0  0  0  0  0  0  0  0  0  0  0
    3.8315   -2.1110    0.7951 C   0  0  0  0  0  0  0  0  0  0  0  0
    3.0355   -3.1531    1.2753 C   0  0  0  0  0  0  0  0  0  0  0  0
    1.6185   -3.0890    1.1571 C   0  0  0  0  0  0  0  0  0  0  0  0
    0.8936   -4.1529    1.7519 C   0  0  0  0  0  0  0  0  0  0  0  0
    1.5207   -5.2382    2.3693 C   0  0  0  0  0  0  0  0  0  0  0  0
    2.9035   -5.2930    2.4287 C   0  0  0  0  0  0  0  0  0  0  0  0
    3.6551   -4.2541    1.8889 C   0  0  0  0  0  0  0  0  0  0  0  0
    0.9867   -1.9657    0.5077 C   0  0  0  0  0  0  0  0  0  0  0  0
   -0.4298   -1.9130    0.1836 C   0  0  0  0  0  0  0  0  0  0  0  0
   -1.2200   -0.8070    0.5839 C   0  0  0  0  0  0  0  0  0  0  0  0
   -0.6200    0.2428    1.2387 O   0  0  0  0  0  0  0  0  0  0  0  0
   -2.6163   -0.7422    0.4294 C   0  0  0  0  0  0  0  0  0  0  0  0
   -3.4052    0.4005    0.9063 C   0  0  0  0  0  0  0  0  0  0  0  0
   -4.1071    0.3351    2.1178 C   0  0  0  0  0  0  0  0  0  0  0  0
   -4.8361    1.4328    2.5775 C   0  0  0  0  0  0  0  0  0  0  0  0
   -4.8677    2.6115    1.8330 C   0  0  0  0  0  0  0  0  0  0  0  0
   -4.1860    2.6998    0.6130 C   0  0  0  0  0  0  0  0  0  0  0  0
   -4.1638    3.9859   -0.1757 C   0  0  0  0  0  0  0  0  0  0  0  0
   -5.4544    4.5947   -0.2512 O   0  0  0  0  0  0  0  0  0  0  0  0
   -6.2792    3.9968   -1.2434 C   0  0  0  0  0  0  0  0  0  0  0  0
   -3.4643    1.5867    0.1587 C   0  0  0  0  0  0  0  0  0  0  0  0
   -3.2569   -1.8069   -0.2020 C   0  0  0  0  0  0  0  0  0  0  0  0
   -2.5358   -2.8922   -0.7039 C   0  0  0  0  0  0  0  0  0  0  0  0
   -1.1249   -2.9512   -0.5405 C   0  0  0  0  0  0  0  0  0  0  0  0
   -0.4708   -4.0401   -1.1722 C   0  0  0  0  0  0  0  0  0  0  0  0
   -1.1639   -5.0407   -1.8594 C   0  0  0  0  0  0  0  0  0  0  0  0
   -2.5440   -4.9795   -1.9580 C   0  0  0  0  0  0  0  0  0  0  0  0
   -3.2241   -3.9076   -1.3890 C   0  0  0  0  0  0  0  0  0  0  0  0
    1.6888    2.7105    1.1901 H   0  0  0  0  0  0  0  0  0  0  0  0
    3.5935    1.4001    1.4446 H   0  0  0  0  0  0  0  0  0  0  0  0
    4.7672    3.7976    1.6291 H   0  0  0  0  0  0  0  0  0  0  0  0
    4.8459    4.6758    0.0981 H   0  0  0  0  0  0  0  0  0  0  0  0
    2.8599    5.6317   -0.6137 H   0  0  0  0  0  0  0  0  0  0  0  0
    2.5563    4.0176   -1.3416 H   0  0  0  0  0  0  0  0  0  0  0  0
    1.3308    4.7825   -0.3095 H   0  0  0  0  0  0  0  0  0  0  0  0
    5.7869    3.3172   -1.7202 H   0  0  0  0  0  0  0  0  0  0  0  0
    5.9759    1.1461   -2.8853 H   0  0  0  0  0  0  0  0  0  0  0  0
    4.8205   -0.8513   -2.0012 H   0  0  0  0  0  0  0  0  0  0  0  0
    4.9158   -2.1670    0.8806 H   0  0  0  0  0  0  0  0  0  0  0  0
   -0.1953   -4.1449    1.7578 H   0  0  0  0  0  0  0  0  0  0  0  0
    0.9205   -6.0316    2.8068 H   0  0  0  0  0  0  0  0  0  0  0  0
    3.3986   -6.1319    2.9092 H   0  0  0  0  0  0  0  0  0  0  0  0
    4.7397   -4.3046    1.9673 H   0  0  0  0  0  0  0  0  0  0  0  0
   -4.0760   -0.5719    2.7181 H   0  0  0  0  0  0  0  0  0  0  0  0
   -5.3696    1.3735    3.5224 H   0  0  0  0  0  0  0  0  0  0  0  0
   -5.4256    3.4686    2.2055 H   0  0  0  0  0  0  0  0  0  0  0  0
   -3.5000    4.6888    0.3404 H   0  0  0  0  0  0  0  0  0  0  0  0
   -3.7588    3.8417   -1.1847 H   0  0  0  0  0  0  0  0  0  0  0  0
   -6.4592    2.9408   -1.0220 H   0  0  0  0  0  0  0  0  0  0  0  0
   -5.8256    4.1025   -2.2336 H   0  0  0  0  0  0  0  0  0  0  0  0
   -7.2409    4.5172   -1.2465 H   0  0  0  0  0  0  0  0  0  0  0  0
   -2.9240    1.6485   -0.7852 H   0  0  0  0  0  0  0  0  0  0  0  0
   -4.3383   -1.7659   -0.3302 H   0  0  0  0  0  0  0  0  0  0  0  0
    0.6145   -4.1187   -1.1517 H   0  0  0  0  0  0  0  0  0  0  0  0
   -0.6172   -5.8590   -2.3204 H   0  0  0  0  0  0  0  0  0  0  0  0
   -3.0905   -5.7516   -2.4922 H   0  0  0  0  0  0  0  0  0  0  0  0
   -4.3061   -3.8615   -1.5004 H   0  0  0  0  0  0  0  0  0  0  0  0
  1  2  2  0  0  0  0
  2 26  1  0  0  0  0
  2  3  1  0  0  0  0
  4  5  1  0  0  0  0
  4  2  1  0  0  0  0
  5  6  2  0  0  0  0
  5 23  1  0  0  0  0
  6 16  1  0  0  0  0
  7  6  1  0  0  0  0
  7  8  2  0  0  0  0
  8 45  1  0  0  0  0
  9  8  1  0  0  0  0
  9 10  1  0  0  0  0
 10 11  1  0  0  0  0
 10 46  1  0  0  0  0
 12 50  1  0  0  0  0
 12 11  1  0  0  0  0
 13  9  2  0  0  0  0
 14 15  2  0  0  0  0
 14 13  1  0  0  0  0
 15  7  1  0  0  0  0
 16 54  1  0  0  0  0
 16 17  2  0  0  0  0
 17 22  1  0  0  0  0
 18 17  1  0  0  0  0
 18 19  1  0  0  0  0
 19 55  1  0  0  0  0
 19 20  2  0  0  0  0
 20 21  1  0  0  0  0
 20 56  1  0  0  0  0
 21 57  1  0  0  0  0
 22 58  1  0  0  0  0
 22 21  2  0  0  0  0
 23 18  2  0  0  0  0
 24 23  1  0  0  0  0
 24 25  2  0  0  0  0
 25 26  1  0  0  0  0
 27 25  1  0  0  0  0
 27 28  1  0  0  0  0
 28 29  2  0  0  0  0
 29 30  1  0  0  0  0
 29 59  1  0  0  0  0
 30 60  1  0  0  0  0
 31 61  1  0  0  0  0
 31 30  2  0  0  0  0
 32 31  1  0  0  0  0
 33 62  1  0  0  0  0
 33 32  1  0  0  0  0
 34 33  1  0  0  0  0
 35 64  1  0  0  0  0
 35 34  1  0  0  0  0
 36 32  2  0  0  0  0
 36 28  1  0  0  0  0
 37 27  2  0  0  0  0
 38 39  1  0  0  0  0
 38 37  1  0  0  0  0
 39 24  1  0  0  0  0
 40 69  1  0  0  0  0
 40 39  2  0  0  0  0
 41 40  1  0  0  0  0
 42 41  2  0  0  0  0
 42 43  1  0  0  0  0
 43 38  2  0  0  0  0
 44  3  1  0  0  0  0
 47 10  1  0  0  0  0
 48 12  1  0  0  0  0
 49 12  1  0  0  0  0
 51 13  1  0  0  0  0
 52 14  1  0  0  0  0
 53 15  1  0  0  0  0
 63 33  1  0  0  0  0
 65 35  1  0  0  0  0
 66 35  1  0  0  0  0
 67 36  1  0  0  0  0
 68 37  1  0  0  0  0
 70 41  1  0  0  0  0
 71 42  1  0  0  0  0
 72 43  1  0  0  0  0
M  END
$$$$
