O=P1(O)OC2=C(CC3=CC=C(C(F)(F)F)C=C3C(F)(F)F)C=C4C(C=CC=C4)=C2C5=C(O1)C(CC6=C(C(F)(F)F)C=C(C(F)(F)F)C=C6)=CC7=C5C=CC=C7
 OpenBabel09032010373D

 76 82  0  0  0  0  0  0  0  0999 V2000
    0.8194    2.7681    1.4996 O   0  0  0  0  0  0  0  0  0  0  0  0
    0.8791    1.2781    1.6327 P   0  0  0  0  0  0  0  0  0  0  0  0
    1.4113    0.8372    3.0844 O   0  0  0  0  0  0  0  0  0  0  0  0
    1.8938    0.5404    0.6240 O   0  0  0  0  0  0  0  0  0  0  0  0
    1.8172   -0.8215    0.4438 C   0  0  0  0  0  0  0  0  0  0  0  0
    2.9596   -1.5575    0.8004 C   0  0  0  0  0  0  0  0  0  0  0  0
    4.1905   -0.9014    1.3977 C   0  0  0  0  0  0  0  0  0  0  0  0
    4.8915    0.0973    0.4869 C   0  0  0  0  0  0  0  0  0  0  0  0
    5.2076   -0.2897   -0.8296 C   0  0  0  0  0  0  0  0  0  0  0  0
    5.8229    0.5947   -1.7156 C   0  0  0  0  0  0  0  0  0  0  0  0
    6.1610    1.8876   -1.3067 C   0  0  0  0  0  0  0  0  0  0  0  0
    6.7791    2.8593   -2.2826 C   0  0  0  0  0  0  0  0  0  0  0  0
    5.8417    3.5321   -3.0034 F   0  0  0  0  0  0  0  0  0  0  0  0
    7.5431    3.8108   -1.6766 F   0  0  0  0  0  0  0  0  0  0  0  0
    7.5936    2.2556   -3.1927 F   0  0  0  0  0  0  0  0  0  0  0  0
    5.8765    2.2733    0.0128 C   0  0  0  0  0  0  0  0  0  0  0  0
    5.2585    1.3919    0.9254 C   0  0  0  0  0  0  0  0  0  0  0  0
    5.0167    1.8611    2.3446 C   0  0  0  0  0  0  0  0  0  0  0  0
    5.5202    3.0988    2.6090 F   0  0  0  0  0  0  0  0  0  0  0  0
    5.5781    1.0327    3.2693 F   0  0  0  0  0  0  0  0  0  0  0  0
    3.6912    1.9291    2.6709 F   0  0  0  0  0  0  0  0  0  0  0  0
    2.9506   -2.9384    0.6002 C   0  0  0  0  0  0  0  0  0  0  0  0
    1.8277   -3.5854    0.0799 C   0  0  0  0  0  0  0  0  0  0  0  0
    0.6775   -2.8361   -0.2881 C   0  0  0  0  0  0  0  0  0  0  0  0
   -0.4464   -3.5892   -0.7147 C   0  0  0  0  0  0  0  0  0  0  0  0
   -0.4181   -4.9810   -0.8402 C   0  0  0  0  0  0  0  0  0  0  0  0
    0.7353   -5.6787   -0.5217 C   0  0  0  0  0  0  0  0  0  0  0  0
    1.8479   -4.9843   -0.0563 C   0  0  0  0  0  0  0  0  0  0  0  0
    0.6746   -1.3978   -0.1698 C   0  0  0  0  0  0  0  0  0  0  0  0
   -0.4077   -0.5595   -0.6514 C   0  0  0  0  0  0  0  0  0  0  0  0
   -1.0252    0.3688    0.2212 C   0  0  0  0  0  0  0  0  0  0  0  0
   -0.5275    0.5107    1.4931 O   0  0  0  0  0  0  0  0  0  0  0  0
   -2.1576    1.1274   -0.1086 C   0  0  0  0  0  0  0  0  0  0  0  0
   -2.7839    2.0985    0.8705 C   0  0  0  0  0  0  0  0  0  0  0  0
   -4.2674    1.8786    1.1226 C   0  0  0  0  0  0  0  0  0  0  0  0
   -4.7626    0.8202    1.9189 C   0  0  0  0  0  0  0  0  0  0  0  0
   -3.8562   -0.1856    2.6062 C   0  0  0  0  0  0  0  0  0  0  0  0
   -4.5164   -0.9453    3.5298 F   0  0  0  0  0  0  0  0  0  0  0  0
   -2.8328    0.3929    3.2907 F   0  0  0  0  0  0  0  0  0  0  0  0
   -3.2998   -1.0738    1.7409 F   0  0  0  0  0  0  0  0  0  0  0  0
   -6.1599    0.6813    2.0706 C   0  0  0  0  0  0  0  0  0  0  0  0
   -7.0628    1.5732    1.4699 C   0  0  0  0  0  0  0  0  0  0  0  0
   -8.5505    1.3780    1.6344 C   0  0  0  0  0  0  0  0  0  0  0  0
   -9.0383    0.4128    0.8078 F   0  0  0  0  0  0  0  0  0  0  0  0
   -8.8975    1.0014    2.8965 F   0  0  0  0  0  0  0  0  0  0  0  0
   -9.2763    2.5003    1.3695 F   0  0  0  0  0  0  0  0  0  0  0  0
   -6.5559    2.6176    0.6920 C   0  0  0  0  0  0  0  0  0  0  0  0
   -5.1791    2.7693    0.5242 C   0  0  0  0  0  0  0  0  0  0  0  0
   -2.6707    1.0024   -1.4009 C   0  0  0  0  0  0  0  0  0  0  0  0
   -2.0707    0.1641   -2.3458 C   0  0  0  0  0  0  0  0  0  0  0  0
   -0.9296   -0.6064   -1.9951 C   0  0  0  0  0  0  0  0  0  0  0  0
   -0.3298   -1.3506   -3.0432 C   0  0  0  0  0  0  0  0  0  0  0  0
   -0.8566   -1.3877   -4.3367 C   0  0  0  0  0  0  0  0  0  0  0  0
   -1.9970   -0.6613   -4.6373 C   0  0  0  0  0  0  0  0  0  0  0  0
   -2.5962    0.1140   -3.6487 C   0  0  0  0  0  0  0  0  0  0  0  0
    2.1212    1.4510    3.3597 H   0  0  0  0  0  0  0  0  0  0  0  0
    3.8786   -0.4450    2.3419 H   0  0  0  0  0  0  0  0  0  0  0  0
    4.9326   -1.6617    1.6751 H   0  0  0  0  0  0  0  0  0  0  0  0
    4.9583   -1.2888   -1.1859 H   0  0  0  0  0  0  0  0  0  0  0  0
    6.0313    0.2687   -2.7342 H   0  0  0  0  0  0  0  0  0  0  0  0
    6.1424    3.2824    0.3352 H   0  0  0  0  0  0  0  0  0  0  0  0
    3.8268   -3.5231    0.8774 H   0  0  0  0  0  0  0  0  0  0  0  0
   -1.3875   -3.0930   -0.9466 H   0  0  0  0  0  0  0  0  0  0  0  0
   -1.3015   -5.5133   -1.1830 H   0  0  0  0  0  0  0  0  0  0  0  0
    0.7656   -6.7607   -0.6161 H   0  0  0  0  0  0  0  0  0  0  0  0
    2.7347   -5.5540    0.2156 H   0  0  0  0  0  0  0  0  0  0  0  0
   -2.6198    3.1105    0.4747 H   0  0  0  0  0  0  0  0  0  0  0  0
   -2.2687    2.1073    1.8364 H   0  0  0  0  0  0  0  0  0  0  0  0
   -6.5549   -0.1405    2.6721 H   0  0  0  0  0  0  0  0  0  0  0  0
   -7.2319    3.3218    0.2084 H   0  0  0  0  0  0  0  0  0  0  0  0
   -4.8154    3.5938   -0.0887 H   0  0  0  0  0  0  0  0  0  0  0  0
   -3.5388    1.5935   -1.6882 H   0  0  0  0  0  0  0  0  0  0  0  0
    0.5852   -1.9138   -2.8681 H   0  0  0  0  0  0  0  0  0  0  0  0
   -0.3671   -1.9803   -5.1050 H   0  0  0  0  0  0  0  0  0  0  0  0
   -2.4092   -0.6813   -5.6425 H   0  0  0  0  0  0  0  0  0  0  0  0
   -3.4756    0.6981   -3.9126 H   0  0  0  0  0  0  0  0  0  0  0  0
  1  2  2  0  0  0  0
  2  3  1  0  0  0  0
  3 56  1  0  0  0  0
  4  2  1  0  0  0  0
  5  4  1  0  0  0  0
  5  6  2  0  0  0  0
  6  7  1  0  0  0  0
  7 58  1  0  0  0  0
  7 57  1  0  0  0  0
  8 17  1  0  0  0  0
  8  7  1  0  0  0  0
  9  8  2  0  0  0  0
 10 11  2  0  0  0  0
 10  9  1  0  0  0  0
 11 16  1  0  0  0  0
 12 14  1  0  0  0  0
 12 11  1  0  0  0  0
 13 12  1  0  0  0  0
 15 12  1  0  0  0  0
 16 61  1  0  0  0  0
 16 17  2  0  0  0  0
 17 18  1  0  0  0  0
 18 19  1  0  0  0  0
 18 21  1  0  0  0  0
 18 20  1  0  0  0  0
 22  6  1  0  0  0  0
 22 62  1  0  0  0  0
 23 22  2  0  0  0  0
 24 29  2  0  0  0  0
 24 23  1  0  0  0  0
 25 24  1  0  0  0  0
 26 25  2  0  0  0  0
 26 27  1  0  0  0  0
 27 28  2  0  0  0  0
 28 23  1  0  0  0  0
 28 66  1  0  0  0  0
 29  5  1  0  0  0  0
 30 29  1  0  0  0  0
 30 31  2  0  0  0  0
 31 32  1  0  0  0  0
 32  2  1  0  0  0  0
 33 31  1  0  0  0  0
 33 34  1  0  0  0  0
 34 35  1  0  0  0  0
 34 68  1  0  0  0  0
 35 36  2  0  0  0  0
 36 41  1  0  0  0  0
 36 37  1  0  0  0  0
 37 39  1  0  0  0  0
 37 38  1  0  0  0  0
 40 37  1  0  0  0  0
 41 69  1  0  0  0  0
 42 43  1  0  0  0  0
 42 41  2  0  0  0  0
 43 45  1  0  0  0  0
 44 43  1  0  0  0  0
 46 43  1  0  0  0  0
 47 42  1  0  0  0  0
 48 47  2  0  0  0  0
 48 35  1  0  0  0  0
 49 33  2  0  0  0  0
 50 51  1  0  0  0  0
 50 49  1  0  0  0  0
 51 30  1  0  0  0  0
 52 73  1  0  0  0  0
 52 51  2  0  0  0  0
 53 52  1  0  0  0  0
 54 53  2  0  0  0  0
 54 55  1  0  0  0  0
 55 50  2  0  0  0  0
 59  9  1  0  0  0  0
 60 10  1  0  0  0  0
 63 25  1  0  0  0  0
 64 26  1  0  0  0  0
 65 27  1  0  0  0  0
 67 34  1  0  0  0  0
 70 47  1  0  0  0  0
 71 48  1  0  0  0  0
 72 49  1  0  0  0  0
 74 53  1  0  0  0  0
 75 54  1  0  0  0  0
 76 55  1  0  0  0  0
M  END
$$$$
