O=P1(O)OC2=[C@]([C@]3=C(Cl)C=C(Cl)C=C3Cl)C=C4C(CCCC4)=[C@]2[C@]5=C(O1)C(C6=C(Cl)C=C(Cl)C=C6Cl)=CC7=C5CCCC7
 OpenBabel09032010373D

 66 72  0  0  0  0  0  0  0  0999 V2000
    0.4991   -3.7275   -0.8071 O   0  0  0  0  0  0  0  0  0  0  0  0
   -0.0341   -2.6669    0.1030 P   0  0  0  0  0  0  0  0  0  0  0  0
   -0.7331   -3.2739    1.4189 O   0  0  0  0  0  0  0  0  0  0  0  0
    1.0775   -1.6878    0.7408 O   0  0  0  0  0  0  0  0  0  0  0  0
    1.5472   -0.6717   -0.0592 C   0  0  0  0  0  0  0  0  0  0  0  0
    2.8783   -0.7509   -0.5026 C   0  0  0  0  0  0  0  0  0  0  0  0
    3.7528   -1.8808   -0.1319 C   0  0  0  0  0  0  0  0  0  0  0  0
    4.0356   -2.9204   -1.0447 C   0  0  0  0  0  0  0  0  0  0  0  0
    3.4236   -2.9057   -2.6669 Cl  0  0  0  0  0  0  0  0  0  0  0  0
    4.8319   -4.0113   -0.6822 C   0  0  0  0  0  0  0  0  0  0  0  0
    5.3667   -4.0788    0.5982 C   0  0  0  0  0  0  0  0  0  0  0  0
    6.3494   -5.4180    1.0449 Cl  0  0  0  0  0  0  0  0  0  0  0  0
    5.1209   -3.0675    1.5189 C   0  0  0  0  0  0  0  0  0  0  0  0
    4.3214   -1.9788    1.1562 C   0  0  0  0  0  0  0  0  0  0  0  0
    4.0813   -0.7501    2.3566 Cl  0  0  0  0  0  0  0  0  0  0  0  0
    3.3514    0.2694   -1.3311 C   0  0  0  0  0  0  0  0  0  0  0  0
    2.5092    1.3039   -1.7631 C   0  0  0  0  0  0  0  0  0  0  0  0
    1.1674    1.3519   -1.3170 C   0  0  0  0  0  0  0  0  0  0  0  0
    0.2130    2.3629   -1.9408 C   0  0  0  0  0  0  0  0  0  0  0  0
    0.7170    2.9604   -3.2537 C   0  0  0  0  0  0  0  0  0  0  0  0
    2.1432    3.4543   -3.0768 C   0  0  0  0  0  0  0  0  0  0  0  0
    3.0649    2.2784   -2.7773 C   0  0  0  0  0  0  0  0  0  0  0  0
    0.6847    0.4023   -0.3630 C   0  0  0  0  0  0  0  0  0  0  0  0
   -0.6065    0.4839    0.2587 C   0  0  0  0  0  0  0  0  0  0  0  0
   -1.5469   -0.5609    0.1056 C   0  0  0  0  0  0  0  0  0  0  0  0
   -1.1838   -1.7280   -0.5295 O   0  0  0  0  0  0  0  0  0  0  0  0
   -2.8828   -0.4635    0.5362 C   0  0  0  0  0  0  0  0  0  0  0  0
   -3.8582   -1.5450    0.2948 C   0  0  0  0  0  0  0  0  0  0  0  0
   -4.4761   -1.7088   -0.9633 C   0  0  0  0  0  0  0  0  0  0  0  0
   -4.1667   -0.6228   -2.2784 Cl  0  0  0  0  0  0  0  0  0  0  0  0
   -5.3814   -2.7480   -1.1992 C   0  0  0  0  0  0  0  0  0  0  0  0
   -5.6870   -3.6408   -0.1788 C   0  0  0  0  0  0  0  0  0  0  0  0
   -6.8023   -4.9177   -0.4675 Cl  0  0  0  0  0  0  0  0  0  0  0  0
   -5.1037   -3.5053    1.0754 C   0  0  0  0  0  0  0  0  0  0  0  0
   -4.1994   -2.4652    1.3091 C   0  0  0  0  0  0  0  0  0  0  0  0
   -3.5129   -2.3603    2.8990 Cl  0  0  0  0  0  0  0  0  0  0  0  0
   -3.2721    0.6919    1.2180 C   0  0  0  0  0  0  0  0  0  0  0  0
   -2.3501    1.7037    1.5158 C   0  0  0  0  0  0  0  0  0  0  0  0
   -1.0114    1.5868    1.0739 C   0  0  0  0  0  0  0  0  0  0  0  0
    0.0198    2.6007    1.5572 C   0  0  0  0  0  0  0  0  0  0  0  0
   -0.4303    3.4086    2.7735 C   0  0  0  0  0  0  0  0  0  0  0  0
   -1.8151    3.9812    2.5226 C   0  0  0  0  0  0  0  0  0  0  0  0
   -2.8253    2.8494    2.3811 C   0  0  0  0  0  0  0  0  0  0  0  0
   -1.0297   -2.5863    2.0420 H   0  0  0  0  0  0  0  0  0  0  0  0
    5.0267   -4.8059   -1.3982 H   0  0  0  0  0  0  0  0  0  0  0  0
    5.5480   -3.1246    2.5170 H   0  0  0  0  0  0  0  0  0  0  0  0
    4.3777    0.2319   -1.6953 H   0  0  0  0  0  0  0  0  0  0  0  0
   -0.7535    1.8854   -2.1415 H   0  0  0  0  0  0  0  0  0  0  0  0
    0.0404    3.1869   -1.2465 H   0  0  0  0  0  0  0  0  0  0  0  0
    0.6763    2.2092   -4.0525 H   0  0  0  0  0  0  0  0  0  0  0  0
    0.0647    3.7877   -3.5551 H   0  0  0  0  0  0  0  0  0  0  0  0
    2.1843    4.1820   -2.2565 H   0  0  0  0  0  0  0  0  0  0  0  0
    2.4843    3.9705   -3.9811 H   0  0  0  0  0  0  0  0  0  0  0  0
    3.2476    1.7263   -3.7083 H   0  0  0  0  0  0  0  0  0  0  0  0
    4.0298    2.6646   -2.4275 H   0  0  0  0  0  0  0  0  0  0  0  0
   -5.8440   -2.8587   -2.1770 H   0  0  0  0  0  0  0  0  0  0  0  0
   -5.3474   -4.2085    1.8681 H   0  0  0  0  0  0  0  0  0  0  0  0
   -4.3003    0.7901    1.5659 H   0  0  0  0  0  0  0  0  0  0  0  0
    0.2490    3.3065    0.7573 H   0  0  0  0  0  0  0  0  0  0  0  0
    0.9491    2.0845    1.8263 H   0  0  0  0  0  0  0  0  0  0  0  0
    0.2849    4.2171    2.9625 H   0  0  0  0  0  0  0  0  0  0  0  0
   -0.4431    2.7728    3.6677 H   0  0  0  0  0  0  0  0  0  0  0  0
   -1.8043    4.5908    1.6102 H   0  0  0  0  0  0  0  0  0  0  0  0
   -2.1116    4.6408    3.3456 H   0  0  0  0  0  0  0  0  0  0  0  0
   -3.7587    3.2567    1.9742 H   0  0  0  0  0  0  0  0  0  0  0  0
   -3.0474    2.4469    3.3780 H   0  0  0  0  0  0  0  0  0  0  0  0
  1  2  2  0  0  0  0
  2  4  1  0  0  0  0
  2  3  1  0  0  0  0
  3 44  1  0  0  0  0
  5  4  1  0  0  0  0
  6  7  1  0  0  0  0
  6  5  2  0  0  0  0
  7 14  2  0  0  0  0
  8 10  2  0  0  0  0
  8  7  1  0  0  0  0
  9  8  1  0  0  0  0
 10 11  1  0  0  0  0
 11 12  1  0  0  0  0
 11 13  2  0  0  0  0
 13 46  1  0  0  0  0
 14 13  1  0  0  0  0
 14 15  1  0  0  0  0
 16  6  1  0  0  0  0
 17 16  2  0  0  0  0
 17 18  1  0  0  0  0
 18 23  2  0  0  0  0
 19 18  1  0  0  0  0
 19 49  1  0  0  0  0
 20 21  1  0  0  0  0
 20 19  1  0  0  0  0
 21 22  1  0  0  0  0
 21 52  1  0  0  0  0
 22 55  1  0  0  0  0
 22 17  1  0  0  0  0
 23  5  1  0  0  0  0
 23 24  1  0  0  0  0
 24 39  1  0  0  0  0
 25 24  2  0  0  0  0
 25 27  1  0  0  0  0
 26  2  1  0  0  0  0
 26 25  1  0  0  0  0
 27 37  2  0  0  0  0
 28 27  1  0  0  0  0
 28 35  2  0  0  0  0
 29 28  1  0  0  0  0
 30 29  1  0  0  0  0
 31 29  2  0  0  0  0
 31 32  1  0  0  0  0
 32 34  2  0  0  0  0
 33 32  1  0  0  0  0
 34 35  1  0  0  0  0
 34 57  1  0  0  0  0
 35 36  1  0  0  0  0
 37 38  1  0  0  0  0
 37 58  1  0  0  0  0
 38 43  1  0  0  0  0
 39 38  2  0  0  0  0
 39 40  1  0  0  0  0
 40 60  1  0  0  0  0
 40 41  1  0  0  0  0
 41 61  1  0  0  0  0
 41 62  1  0  0  0  0
 42 41  1  0  0  0  0
 42 64  1  0  0  0  0
 43 42  1  0  0  0  0
 43 66  1  0  0  0  0
 45 10  1  0  0  0  0
 47 16  1  0  0  0  0
 48 19  1  0  0  0  0
 50 20  1  0  0  0  0
 51 20  1  0  0  0  0
 53 21  1  0  0  0  0
 54 22  1  0  0  0  0
 56 31  1  0  0  0  0
 59 40  1  0  0  0  0
 63 42  1  0  0  0  0
 65 43  1  0  0  0  0
M  END
$$$$
