O=P1(O)OC2=C([Si](C3=CC=CC=C3)(C4=CC=CC=C4)C5=CC=CC=C5)C=C6C(C=CC=C6)=C2C7=C(O1)C([Si](C8=CC=CC=C8)(C9=CC=CC=C9)C%10=CC=CC=C%10)=CC%11=C7C=CC=C%11
 OpenBabel09032010383D

104114  0  0  0  0  0  0  0  0999 V2000
   -0.8446    2.2817    0.8463 O   0  0  0  0  0  0  0  0  0  0  0  0
   -0.0234    1.0290    0.8514 P   0  0  0  0  0  0  0  0  0  0  0  0
    1.0216    0.9882    2.0709 O   0  0  0  0  0  0  0  0  0  0  0  0
    0.8988    0.8555   -0.4612 O   0  0  0  0  0  0  0  0  0  0  0  0
    1.5073   -0.3415   -0.7399 C   0  0  0  0  0  0  0  0  0  0  0  0
    2.9147   -0.3432   -0.8557 C   0  0  0  0  0  0  0  0  0  0  0  0
    4.0152    1.1799   -0.7412 Si  0  0  0  0  0  0  0  0  0  0  0  0
    3.4101    2.4733    0.4685 C   0  0  0  0  0  0  0  0  0  0  0  0
    2.4202    3.4086    0.0973 C   0  0  0  0  0  0  0  0  0  0  0  0
    1.9567    4.3793    0.9914 C   0  0  0  0  0  0  0  0  0  0  0  0
    2.4849    4.4565    2.2746 C   0  0  0  0  0  0  0  0  0  0  0  0
    3.4774    3.5639    2.6634 C   0  0  0  0  0  0  0  0  0  0  0  0
    3.9311    2.5828    1.7733 C   0  0  0  0  0  0  0  0  0  0  0  0
    5.7423    0.6276   -0.2328 C   0  0  0  0  0  0  0  0  0  0  0  0
    6.8941    1.0222   -0.9398 C   0  0  0  0  0  0  0  0  0  0  0  0
    8.1670    0.5921   -0.5499 C   0  0  0  0  0  0  0  0  0  0  0  0
    8.3181   -0.2425    0.5529 C   0  0  0  0  0  0  0  0  0  0  0  0
    7.1975   -0.6498    1.2681 C   0  0  0  0  0  0  0  0  0  0  0  0
    5.9254   -0.2226    0.8795 C   0  0  0  0  0  0  0  0  0  0  0  0
    4.1117    1.9646   -2.4446 C   0  0  0  0  0  0  0  0  0  0  0  0
    4.5959    3.2804   -2.6068 C   0  0  0  0  0  0  0  0  0  0  0  0
    4.6739    3.8754   -3.8691 C   0  0  0  0  0  0  0  0  0  0  0  0
    4.2711    3.1702   -4.9982 C   0  0  0  0  0  0  0  0  0  0  0  0
    3.7910    1.8709   -4.8662 C   0  0  0  0  0  0  0  0  0  0  0  0
    3.7122    1.2732   -3.6046 C   0  0  0  0  0  0  0  0  0  0  0  0
    3.5128   -1.5779   -1.1700 C   0  0  0  0  0  0  0  0  0  0  0  0
    2.7729   -2.7543   -1.3259 C   0  0  0  0  0  0  0  0  0  0  0  0
    1.3608   -2.7205   -1.2377 C   0  0  0  0  0  0  0  0  0  0  0  0
    0.6958   -3.9705   -1.3425 C   0  0  0  0  0  0  0  0  0  0  0  0
    1.3761   -5.1687   -1.5761 C   0  0  0  0  0  0  0  0  0  0  0  0
    2.7555   -5.1627   -1.7006 C   0  0  0  0  0  0  0  0  0  0  0  0
    3.4486   -3.9627   -1.5721 C   0  0  0  0  0  0  0  0  0  0  0  0
    0.6815   -1.4719   -1.0188 C   0  0  0  0  0  0  0  0  0  0  0  0
   -0.7625   -1.3446   -1.1236 C   0  0  0  0  0  0  0  0  0  0  0  0
   -1.5288   -0.8307   -0.0397 C   0  0  0  0  0  0  0  0  0  0  0  0
   -0.8370   -0.3493    1.0393 O   0  0  0  0  0  0  0  0  0  0  0  0
   -2.9354   -0.8402    0.0167 C   0  0  0  0  0  0  0  0  0  0  0  0
   -3.9860   -0.3099    1.4790 Si  0  0  0  0  0  0  0  0  0  0  0  0
   -5.3294    0.7952    0.7669 C   0  0  0  0  0  0  0  0  0  0  0  0
   -4.9827    1.9151   -0.0192 C   0  0  0  0  0  0  0  0  0  0  0  0
   -5.9628    2.7366   -0.5847 C   0  0  0  0  0  0  0  0  0  0  0  0
   -7.3110    2.4569   -0.3843 C   0  0  0  0  0  0  0  0  0  0  0  0
   -7.6798    1.3551    0.3811 C   0  0  0  0  0  0  0  0  0  0  0  0
   -6.7011    0.5321    0.9489 C   0  0  0  0  0  0  0  0  0  0  0  0
   -3.0719    0.5546    2.8509 C   0  0  0  0  0  0  0  0  0  0  0  0
   -3.1848    1.9386    3.0814 C   0  0  0  0  0  0  0  0  0  0  0  0
   -2.5035    2.5613    4.1336 C   0  0  0  0  0  0  0  0  0  0  0  0
   -1.6995    1.8150    4.9879 C   0  0  0  0  0  0  0  0  0  0  0  0
   -1.5731    0.4450    4.7892 C   0  0  0  0  0  0  0  0  0  0  0  0
   -2.2530   -0.1776    3.7378 C   0  0  0  0  0  0  0  0  0  0  0  0
   -4.7843   -1.8231    2.2673 C   0  0  0  0  0  0  0  0  0  0  0  0
   -4.6816   -3.1124    1.7129 C   0  0  0  0  0  0  0  0  0  0  0  0
   -5.2830   -4.2147    2.3299 C   0  0  0  0  0  0  0  0  0  0  0  0
   -5.9938   -4.0555    3.5155 C   0  0  0  0  0  0  0  0  0  0  0  0
   -6.1018   -2.7944    4.0909 C   0  0  0  0  0  0  0  0  0  0  0  0
   -5.5024   -1.6917    3.4765 C   0  0  0  0  0  0  0  0  0  0  0  0
   -3.5994   -1.2994   -1.1371 C   0  0  0  0  0  0  0  0  0  0  0  0
   -2.9155   -1.7253   -2.2810 C   0  0  0  0  0  0  0  0  0  0  0  0
   -1.4997   -1.7422   -2.2948 C   0  0  0  0  0  0  0  0  0  0  0  0
   -0.8898   -2.1168   -3.5209 C   0  0  0  0  0  0  0  0  0  0  0  0
   -1.6275   -2.5052   -4.6427 C   0  0  0  0  0  0  0  0  0  0  0  0
   -3.0111   -2.5185   -4.5848 C   0  0  0  0  0  0  0  0  0  0  0  0
   -3.6496   -2.1251   -3.4122 C   0  0  0  0  0  0  0  0  0  0  0  0
    1.3212    1.8941    2.2753 H   0  0  0  0  0  0  0  0  0  0  0  0
    1.9768    3.3889   -0.8998 H   0  0  0  0  0  0  0  0  0  0  0  0
    1.1773    5.0718    0.6803 H   0  0  0  0  0  0  0  0  0  0  0  0
    2.1286    5.2158    2.9661 H   0  0  0  0  0  0  0  0  0  0  0  0
    3.9047    3.6272    3.6618 H   0  0  0  0  0  0  0  0  0  0  0  0
    4.7089    1.9103    2.1294 H   0  0  0  0  0  0  0  0  0  0  0  0
    6.8287    1.6678   -1.8140 H   0  0  0  0  0  0  0  0  0  0  0  0
    9.0412    0.9107   -1.1131 H   0  0  0  0  0  0  0  0  0  0  0  0
    9.3074   -0.5755    0.8534 H   0  0  0  0  0  0  0  0  0  0  0  0
    7.3073   -1.3022    2.1304 H   0  0  0  0  0  0  0  0  0  0  0  0
    5.0733   -0.5716    1.4630 H   0  0  0  0  0  0  0  0  0  0  0  0
    4.9228    3.8654   -1.7467 H   0  0  0  0  0  0  0  0  0  0  0  0
    5.0491    4.8908   -3.9677 H   0  0  0  0  0  0  0  0  0  0  0  0
    4.3310    3.6318   -5.9800 H   0  0  0  0  0  0  0  0  0  0  0  0
    3.4749    1.3164   -5.7463 H   0  0  0  0  0  0  0  0  0  0  0  0
    3.3305    0.2548   -3.5547 H   0  0  0  0  0  0  0  0  0  0  0  0
    4.5955   -1.6416   -1.2966 H   0  0  0  0  0  0  0  0  0  0  0  0
   -0.3852   -4.0294   -1.2285 H   0  0  0  0  0  0  0  0  0  0  0  0
    0.8223   -6.1001   -1.6552 H   0  0  0  0  0  0  0  0  0  0  0  0
    3.2946   -6.0878   -1.8824 H   0  0  0  0  0  0  0  0  0  0  0  0
    4.5342   -3.9805   -1.6540 H   0  0  0  0  0  0  0  0  0  0  0  0
   -3.9368    2.1654   -0.2044 H   0  0  0  0  0  0  0  0  0  0  0  0
   -5.6666    3.5934   -1.1847 H   0  0  0  0  0  0  0  0  0  0  0  0
   -8.0743    3.0928   -0.8260 H   0  0  0  0  0  0  0  0  0  0  0  0
   -8.7329    1.1294    0.5352 H   0  0  0  0  0  0  0  0  0  0  0  0
   -7.0410   -0.3250    1.5274 H   0  0  0  0  0  0  0  0  0  0  0  0
   -3.7993    2.5693    2.4421 H   0  0  0  0  0  0  0  0  0  0  0  0
   -2.6061    3.6335    4.2804 H   0  0  0  0  0  0  0  0  0  0  0  0
   -1.1757    2.2992    5.8073 H   0  0  0  0  0  0  0  0  0  0  0  0
   -0.9447   -0.1466    5.4498 H   0  0  0  0  0  0  0  0  0  0  0  0
   -2.1293   -1.2548    3.6197 H   0  0  0  0  0  0  0  0  0  0  0  0
   -4.1260   -3.2926    0.7950 H   0  0  0  0  0  0  0  0  0  0  0  0
   -5.1905   -5.2013    1.8827 H   0  0  0  0  0  0  0  0  0  0  0  0
   -6.4577   -4.9143    3.9927 H   0  0  0  0  0  0  0  0  0  0  0  0
   -6.6489   -2.6650    5.0211 H   0  0  0  0  0  0  0  0  0  0  0  0
   -5.6023   -0.7198    3.9616 H   0  0  0  0  0  0  0  0  0  0  0  0
   -4.6922   -1.3124   -1.1593 H   0  0  0  0  0  0  0  0  0  0  0  0
    0.1933   -2.0964   -3.6252 H   0  0  0  0  0  0  0  0  0  0  0  0
   -1.1140   -2.7887   -5.5572 H   0  0  0  0  0  0  0  0  0  0  0  0
   -3.5944   -2.8181   -5.4513 H   0  0  0  0  0  0  0  0  0  0  0  0
   -4.7385   -2.1211   -3.3921 H   0  0  0  0  0  0  0  0  0  0  0  0
  1  2  2  0  0  0  0
  2 36  1  0  0  0  0
  2  3  1  0  0  0  0
  3 64  1  0  0  0  0
  4  2  1  0  0  0  0
  5  4  1  0  0  0  0
  6  7  1  0  0  0  0
  6  5  1  0  0  0  0
  7 14  1  0  0  0  0
  7  8  1  0  0  0  0
  8 13  1  0  0  0  0
  9  8  2  0  0  0  0
  9 10  1  0  0  0  0
 10 11  2  0  0  0  0
 11 12  1  0  0  0  0
 11 67  1  0  0  0  0
 12 68  1  0  0  0  0
 13 69  1  0  0  0  0
 13 12  2  0  0  0  0
 14 19  2  0  0  0  0
 15 16  2  0  0  0  0
 15 14  1  0  0  0  0
 16 17  1  0  0  0  0
 17 72  1  0  0  0  0
 17 18  2  0  0  0  0
 18 73  1  0  0  0  0
 19 18  1  0  0  0  0
 19 74  1  0  0  0  0
 20  7  1  0  0  0  0
 21 20  1  0  0  0  0
 21 75  1  0  0  0  0
 22 21  2  0  0  0  0
 23 24  2  0  0  0  0
 23 22  1  0  0  0  0
 24 25  1  0  0  0  0
 25 79  1  0  0  0  0
 25 20  2  0  0  0  0
 26  6  2  0  0  0  0
 27 28  1  0  0  0  0
 27 26  1  0  0  0  0
 28 33  1  0  0  0  0
 29 28  2  0  0  0  0
 29 81  1  0  0  0  0
 30 29  1  0  0  0  0
 31 30  2  0  0  0  0
 31 32  1  0  0  0  0
 32 27  2  0  0  0  0
 33  5  2  0  0  0  0
 34 33  1  0  0  0  0
 34 35  2  0  0  0  0
 35 37  1  0  0  0  0
 35 36  1  0  0  0  0
 37 38  1  0  0  0  0
 38 51  1  0  0  0  0
 38 45  1  0  0  0  0
 39 44  1  0  0  0  0
 39 38  1  0  0  0  0
 40 39  2  0  0  0  0
 41 42  2  0  0  0  0
 41 40  1  0  0  0  0
 42 43  1  0  0  0  0
 43 88  1  0  0  0  0
 43 44  2  0  0  0  0
 44 89  1  0  0  0  0
 45 46  2  0  0  0  0
 45 50  1  0  0  0  0
 46 47  1  0  0  0  0
 47 91  1  0  0  0  0
 47 48  2  0  0  0  0
 48 92  1  0  0  0  0
 49 48  1  0  0  0  0
 49 93  1  0  0  0  0
 50 49  2  0  0  0  0
 51 56  1  0  0  0  0
 52 51  2  0  0  0  0
 52 53  1  0  0  0  0
 53 54  2  0  0  0  0
 54 97  1  0  0  0  0
 54 55  1  0  0  0  0
 55 98  1  0  0  0  0
 56 99  1  0  0  0  0
 56 55  2  0  0  0  0
 57 37  2  0  0  0  0
 58 57  1  0  0  0  0
 59 58  1  0  0  0  0
 59 34  1  0  0  0  0
 60 59  2  0  0  0  0
 61 62  2  0  0  0  0
 61 60  1  0  0  0  0
 62 63  1  0  0  0  0
 63104  1  0  0  0  0
 63 58  2  0  0  0  0
 65  9  1  0  0  0  0
 66 10  1  0  0  0  0
 70 15  1  0  0  0  0
 71 16  1  0  0  0  0
 76 22  1  0  0  0  0
 77 23  1  0  0  0  0
 78 24  1  0  0  0  0
 80 26  1  0  0  0  0
 82 30  1  0  0  0  0
 83 31  1  0  0  0  0
 84 32  1  0  0  0  0
 85 40  1  0  0  0  0
 86 41  1  0  0  0  0
 87 42  1  0  0  0  0
 90 46  1  0  0  0  0
 94 50  1  0  0  0  0
 95 52  1  0  0  0  0
 96 53  1  0  0  0  0
100 57  1  0  0  0  0
101 60  1  0  0  0  0
102 61  1  0  0  0  0
103 62  1  0  0  0  0
M  END
$$$$
