O=P1(O)OC2=C([Si](C3=CC=CC=C3)(C4=CC=CC=C4)C5=CC=CC=C5)C=C6C(CCCC6)=C2C7=C(O1)C([Si](C8=CC=CC=C8)(C9=CC=CC=C9)C%10=CC=CC=C%10)=CC%11=C7CCCC%11
 OpenBabel09032010383D

112122  0  0  0  0  0  0  0  0999 V2000
    1.0000    2.6473   -0.5551 O   0  0  0  0  0  0  0  0  0  0  0  0
    0.1171    1.4589   -0.7923 P   0  0  0  0  0  0  0  0  0  0  0  0
   -0.8096    1.6190   -2.0949 O   0  0  0  0  0  0  0  0  0  0  0  0
   -0.9035    1.1441    0.4190 O   0  0  0  0  0  0  0  0  0  0  0  0
   -1.4685   -0.0957    0.5837 C   0  0  0  0  0  0  0  0  0  0  0  0
   -2.8774   -0.1761    0.6205 C   0  0  0  0  0  0  0  0  0  0  0  0
   -4.0525    1.2887    0.5522 Si  0  0  0  0  0  0  0  0  0  0  0  0
   -3.3745    2.7852   -0.3314 C   0  0  0  0  0  0  0  0  0  0  0  0
   -3.7366    3.1047   -1.6544 C   0  0  0  0  0  0  0  0  0  0  0  0
   -3.2075    4.2253   -2.3050 C   0  0  0  0  0  0  0  0  0  0  0  0
   -2.3037    5.0545   -1.6498 C   0  0  0  0  0  0  0  0  0  0  0  0
   -1.9389    4.7739   -0.3387 C   0  0  0  0  0  0  0  0  0  0  0  0
   -2.4734    3.6597    0.3142 C   0  0  0  0  0  0  0  0  0  0  0  0
   -4.4784    1.7997    2.3132 C   0  0  0  0  0  0  0  0  0  0  0  0
   -5.0569    3.0604    2.5753 C   0  0  0  0  0  0  0  0  0  0  0  0
   -5.3827    3.4542    3.8759 C   0  0  0  0  0  0  0  0  0  0  0  0
   -5.1400    2.5987    4.9450 C   0  0  0  0  0  0  0  0  0  0  0  0
   -4.5706    1.3503    4.7145 C   0  0  0  0  0  0  0  0  0  0  0  0
   -4.2425    0.9539    3.4140 C   0  0  0  0  0  0  0  0  0  0  0  0
   -5.6373    0.7276   -0.3020 C   0  0  0  0  0  0  0  0  0  0  0  0
   -5.5833    0.0028   -1.5126 C   0  0  0  0  0  0  0  0  0  0  0  0
   -6.7490   -0.4288   -2.1540 C   0  0  0  0  0  0  0  0  0  0  0  0
   -7.9950   -0.1471   -1.6028 C   0  0  0  0  0  0  0  0  0  0  0  0
   -8.0756    0.5650   -0.4104 C   0  0  0  0  0  0  0  0  0  0  0  0
   -6.9114    0.9971    0.2337 C   0  0  0  0  0  0  0  0  0  0  0  0
   -3.4273   -1.4628    0.7816 C   0  0  0  0  0  0  0  0  0  0  0  0
   -2.6329   -2.6137    0.8754 C   0  0  0  0  0  0  0  0  0  0  0  0
   -1.2283   -2.4964    0.8602 C   0  0  0  0  0  0  0  0  0  0  0  0
   -0.3789   -3.7627    0.8436 C   0  0  0  0  0  0  0  0  0  0  0  0
   -1.1457   -5.0207    0.4401 C   0  0  0  0  0  0  0  0  0  0  0  0
   -2.4259   -5.1229    1.2512 C   0  0  0  0  0  0  0  0  0  0  0  0
   -3.3402   -3.9494    0.9234 C   0  0  0  0  0  0  0  0  0  0  0  0
   -0.6073   -1.2116    0.8116 C   0  0  0  0  0  0  0  0  0  0  0  0
    0.8198   -1.0576    0.9622 C   0  0  0  0  0  0  0  0  0  0  0  0
    1.5839   -0.4904   -0.0858 C   0  0  0  0  0  0  0  0  0  0  0  0
    0.8851    0.0771   -1.1140 O   0  0  0  0  0  0  0  0  0  0  0  0
    2.9891   -0.4905   -0.1434 C   0  0  0  0  0  0  0  0  0  0  0  0
    4.0111    0.1067   -1.6024 Si  0  0  0  0  0  0  0  0  0  0  0  0
    4.7160   -1.3821   -2.5023 C   0  0  0  0  0  0  0  0  0  0  0  0
    5.4291   -1.2149   -3.7085 C   0  0  0  0  0  0  0  0  0  0  0  0
    5.9437   -2.3115   -4.4051 C   0  0  0  0  0  0  0  0  0  0  0  0
    5.7518   -3.5998   -3.9174 C   0  0  0  0  0  0  0  0  0  0  0  0
    5.0425   -3.7931   -2.7364 C   0  0  0  0  0  0  0  0  0  0  0  0
    4.5268   -2.6977   -2.0376 C   0  0  0  0  0  0  0  0  0  0  0  0
    5.3794    1.1598   -0.8872 C   0  0  0  0  0  0  0  0  0  0  0  0
    5.0667    2.2240   -0.0132 C   0  0  0  0  0  0  0  0  0  0  0  0
    6.0677    3.0210    0.5487 C   0  0  0  0  0  0  0  0  0  0  0  0
    7.4042    2.7717    0.2562 C   0  0  0  0  0  0  0  0  0  0  0  0
    7.7401    1.7237   -0.5950 C   0  0  0  0  0  0  0  0  0  0  0  0
    6.7401    0.9242   -1.1586 C   0  0  0  0  0  0  0  0  0  0  0  0
    3.0318    1.0624   -2.8738 C   0  0  0  0  0  0  0  0  0  0  0  0
    2.1345    0.3924   -3.7338 C   0  0  0  0  0  0  0  0  0  0  0  0
    1.3122    1.0942   -4.6178 C   0  0  0  0  0  0  0  0  0  0  0  0
    1.3888    2.4796   -4.6891 C   0  0  0  0  0  0  0  0  0  0  0  0
    2.3056    3.1617   -3.8978 C   0  0  0  0  0  0  0  0  0  0  0  0
    3.1191    2.4611   -3.0012 C   0  0  0  0  0  0  0  0  0  0  0  0
    3.6539   -0.9979    0.9869 C   0  0  0  0  0  0  0  0  0  0  0  0
    2.9598   -1.4486    2.1201 C   0  0  0  0  0  0  0  0  0  0  0  0
    1.5470   -1.4797    2.1153 C   0  0  0  0  0  0  0  0  0  0  0  0
    0.8185   -1.7619    3.4229 C   0  0  0  0  0  0  0  0  0  0  0  0
    1.6348   -2.5863    4.4145 C   0  0  0  0  0  0  0  0  0  0  0  0
    3.0036   -1.9562    4.6107 C   0  0  0  0  0  0  0  0  0  0  0  0
    3.7716   -1.9453    3.2951 C   0  0  0  0  0  0  0  0  0  0  0  0
   -0.3114    2.0713   -2.8022 H   0  0  0  0  0  0  0  0  0  0  0  0
   -4.4354    2.4858   -2.2135 H   0  0  0  0  0  0  0  0  0  0  0  0
   -3.5020    4.4438   -3.3279 H   0  0  0  0  0  0  0  0  0  0  0  0
   -1.8829    5.9171   -2.1579 H   0  0  0  0  0  0  0  0  0  0  0  0
   -1.2289    5.4138    0.1794 H   0  0  0  0  0  0  0  0  0  0  0  0
   -2.1485    3.4704    1.3385 H   0  0  0  0  0  0  0  0  0  0  0  0
   -5.2642    3.7588    1.7638 H   0  0  0  0  0  0  0  0  0  0  0  0
   -5.8262    4.4310    4.0509 H   0  0  0  0  0  0  0  0  0  0  0  0
   -5.3935    2.9044    5.9564 H   0  0  0  0  0  0  0  0  0  0  0  0
   -4.3791    0.6801    5.5486 H   0  0  0  0  0  0  0  0  0  0  0  0
   -3.7970   -0.0309    3.2856 H   0  0  0  0  0  0  0  0  0  0  0  0
   -4.6242   -0.2385   -1.9732 H   0  0  0  0  0  0  0  0  0  0  0  0
   -6.6826   -0.9866   -3.0848 H   0  0  0  0  0  0  0  0  0  0  0  0
   -8.9026   -0.4819   -2.0993 H   0  0  0  0  0  0  0  0  0  0  0  0
   -9.0471    0.7862    0.0251 H   0  0  0  0  0  0  0  0  0  0  0  0
   -7.0272    1.5448    1.1673 H   0  0  0  0  0  0  0  0  0  0  0  0
   -4.5111   -1.5956    0.8216 H   0  0  0  0  0  0  0  0  0  0  0  0
    0.4539   -3.6442    0.1402 H   0  0  0  0  0  0  0  0  0  0  0  0
    0.0418   -3.9307    1.8396 H   0  0  0  0  0  0  0  0  0  0  0  0
   -1.3820   -4.9927   -0.6311 H   0  0  0  0  0  0  0  0  0  0  0  0
   -0.5188   -5.9033    0.6093 H   0  0  0  0  0  0  0  0  0  0  0  0
   -2.1868   -5.1251    2.3223 H   0  0  0  0  0  0  0  0  0  0  0  0
   -2.9414   -6.0653    1.0353 H   0  0  0  0  0  0  0  0  0  0  0  0
   -4.1472   -3.9144    1.6653 H   0  0  0  0  0  0  0  0  0  0  0  0
   -3.8012   -4.1203   -0.0580 H   0  0  0  0  0  0  0  0  0  0  0  0
    5.5885   -0.2209   -4.1278 H   0  0  0  0  0  0  0  0  0  0  0  0
    6.4894   -2.1562   -5.3322 H   0  0  0  0  0  0  0  0  0  0  0  0
    6.1481   -4.4529   -4.4605 H   0  0  0  0  0  0  0  0  0  0  0  0
    4.8819   -4.7991   -2.3572 H   0  0  0  0  0  0  0  0  0  0  0  0
    3.9628   -2.9019   -1.1288 H   0  0  0  0  0  0  0  0  0  0  0  0
    4.0295    2.4514    0.2425 H   0  0  0  0  0  0  0  0  0  0  0  0
    5.7980    3.8356    1.2158 H   0  0  0  0  0  0  0  0  0  0  0  0
    8.1822    3.3913    0.6930 H   0  0  0  0  0  0  0  0  0  0  0  0
    8.7843    1.5224   -0.8213 H   0  0  0  0  0  0  0  0  0  0  0  0
    7.0548    0.1090   -1.8076 H   0  0  0  0  0  0  0  0  0  0  0  0
    2.0265   -0.6926   -3.6888 H   0  0  0  0  0  0  0  0  0  0  0  0
    0.5851    0.5590   -5.2213 H   0  0  0  0  0  0  0  0  0  0  0  0
    0.7170    3.0246   -5.3430 H   0  0  0  0  0  0  0  0  0  0  0  0
    2.3792    4.2455   -3.9565 H   0  0  0  0  0  0  0  0  0  0  0  0
    3.7992    3.0439   -2.3820 H   0  0  0  0  0  0  0  0  0  0  0  0
    4.7459   -1.0230    1.0121 H   0  0  0  0  0  0  0  0  0  0  0  0
    0.5819   -0.7901    3.8767 H   0  0  0  0  0  0  0  0  0  0  0  0
   -0.1344   -2.2718    3.2721 H   0  0  0  0  0  0  0  0  0  0  0  0
    1.7453   -3.6149    4.0492 H   0  0  0  0  0  0  0  0  0  0  0  0
    1.1058   -2.6375    5.3728 H   0  0  0  0  0  0  0  0  0  0  0  0
    3.5720   -2.5099    5.3663 H   0  0  0  0  0  0  0  0  0  0  0  0
    2.8872   -0.9307    4.9838 H   0  0  0  0  0  0  0  0  0  0  0  0
    4.6672   -1.3246    3.4211 H   0  0  0  0  0  0  0  0  0  0  0  0
    4.1083   -2.9637    3.0628 H   0  0  0  0  0  0  0  0  0  0  0  0
  2  1  2  0  0  0  0
  2  4  1  0  0  0  0
  3  2  1  0  0  0  0
  4  5  1  0  0  0  0
  5  6  2  0  0  0  0
  5 33  1  0  0  0  0
  6 26  1  0  0  0  0
  7  6  1  0  0  0  0
  7 14  1  0  0  0  0
  8 13  2  0  0  0  0
  8  7  1  0  0  0  0
  9  8  1  0  0  0  0
 10  9  2  0  0  0  0
 10 11  1  0  0  0  0
 11 12  2  0  0  0  0
 12 68  1  0  0  0  0
 12 13  1  0  0  0  0
 13 69  1  0  0  0  0
 14 15  2  0  0  0  0
 14 19  1  0  0  0  0
 15 16  1  0  0  0  0
 16 71  1  0  0  0  0
 16 17  2  0  0  0  0
 17 72  1  0  0  0  0
 18 17  1  0  0  0  0
 18 73  1  0  0  0  0
 19 18  2  0  0  0  0
 20 25  1  0  0  0  0
 20  7  1  0  0  0  0
 21 20  2  0  0  0  0
 22 23  2  0  0  0  0
 22 21  1  0  0  0  0
 23 24  1  0  0  0  0
 24 78  1  0  0  0  0
 24 25  2  0  0  0  0
 25 79  1  0  0  0  0
 26 80  1  0  0  0  0
 26 27  2  0  0  0  0
 27 32  1  0  0  0  0
 28 27  1  0  0  0  0
 29 28  1  0  0  0  0
 29 82  1  0  0  0  0
 30 84  1  0  0  0  0
 30 29  1  0  0  0  0
 30 31  1  0  0  0  0
 31 85  1  0  0  0  0
 32 31  1  0  0  0  0
 32 87  1  0  0  0  0
 33 28  2  0  0  0  0
 33 34  1  0  0  0  0
 34 59  2  0  0  0  0
 35 34  1  0  0  0  0
 36  2  1  0  0  0  0
 36 35  1  0  0  0  0
 37 35  2  0  0  0  0
 37 57  1  0  0  0  0
 38 45  1  0  0  0  0
 38 37  1  0  0  0  0
 39 44  1  0  0  0  0
 39 38  1  0  0  0  0
 40 39  2  0  0  0  0
 41 42  2  0  0  0  0
 41 40  1  0  0  0  0
 42 43  1  0  0  0  0
 43 92  1  0  0  0  0
 43 44  2  0  0  0  0
 44 93  1  0  0  0  0
 45 46  1  0  0  0  0
 46 94  1  0  0  0  0
 46 47  2  0  0  0  0
 47 95  1  0  0  0  0
 48 47  1  0  0  0  0
 48 96  1  0  0  0  0
 49 48  2  0  0  0  0
 50 45  2  0  0  0  0
 50 49  1  0  0  0  0
 51 38  1  0  0  0  0
 52 99  1  0  0  0  0
 52 51  2  0  0  0  0
 53 52  1  0  0  0  0
 54 53  2  0  0  0  0
 54 55  1  0  0  0  0
 55 56  2  0  0  0  0
 56 51  1  0  0  0  0
 56103  1  0  0  0  0
 57104  1  0  0  0  0
 57 58  2  0  0  0  0
 58 63  1  0  0  0  0
 59 58  1  0  0  0  0
 59 60  1  0  0  0  0
 60105  1  0  0  0  0
 60 61  1  0  0  0  0
 61 62  1  0  0  0  0
 61108  1  0  0  0  0
 62110  1  0  0  0  0
 62109  1  0  0  0  0
 63111  1  0  0  0  0
 63 62  1  0  0  0  0
 64  3  1  0  0  0  0
 65  9  1  0  0  0  0
 66 10  1  0  0  0  0
 67 11  1  0  0  0  0
 70 15  1  0  0  0  0
 74 19  1  0  0  0  0
 75 21  1  0  0  0  0
 76 22  1  0  0  0  0
 77 23  1  0  0  0  0
 81 29  1  0  0  0  0
 83 30  1  0  0  0  0
 86 31  1  0  0  0  0
 88 32  1  0  0  0  0
 89 40  1  0  0  0  0
 90 41  1  0  0  0  0
 91 42  1  0  0  0  0
 97 49  1  0  0  0  0
 98 50  1  0  0  0  0
100 53  1  0  0  0  0
101 54  1  0  0  0  0
102 55  1  0  0  0  0
106 60  1  0  0  0  0
107 61  1  0  0  0  0
112 63  1  0  0  0  0
M  END
$$$$
