O=P1(O)OC2=C([Si](C3=CC=CC=C3)(C)C4=CC=CC=C4)C=C5C(C=CC=C5)=C2C6=C(O1)C([Si](C7=CC=CC=C7)(C8=CC=CC=C8)C)=CC9=C6C=CC=C9
 OpenBabel09032010383D

 90 98  0  0  0  0  0  0  0  0999 V2000
   -0.9606   -2.1750    2.2105 O   0  0  0  0  0  0  0  0  0  0  0  0
   -0.2470   -1.4572    1.1062 P   0  0  0  0  0  0  0  0  0  0  0  0
    0.5707   -2.4583    0.1563 O   0  0  0  0  0  0  0  0  0  0  0  0
    0.8502   -0.3779    1.5843 O   0  0  0  0  0  0  0  0  0  0  0  0
    1.3004    0.6004    0.7254 C   0  0  0  0  0  0  0  0  0  0  0  0
    2.6834    0.6105    0.4401 C   0  0  0  0  0  0  0  0  0  0  0  0
    3.8940   -0.6953    1.1044 Si  0  0  0  0  0  0  0  0  0  0  0  0
    5.6043    0.1380    1.1104 C   0  0  0  0  0  0  0  0  0  0  0  0
    6.5865   -0.1542    0.1458 C   0  0  0  0  0  0  0  0  0  0  0  0
    7.8297    0.4834    0.1730 C   0  0  0  0  0  0  0  0  0  0  0  0
    8.1146    1.4213    1.1614 C   0  0  0  0  0  0  0  0  0  0  0  0
    7.1583    1.7242    2.1263 C   0  0  0  0  0  0  0  0  0  0  0  0
    5.9134    1.0900    2.1027 C   0  0  0  0  0  0  0  0  0  0  0  0
    3.4769   -1.3256    2.8048 C   0  0  0  0  0  0  0  0  0  0  0  0
    3.9793   -2.0821   -0.1760 C   0  0  0  0  0  0  0  0  0  0  0  0
    4.5171   -3.3342    0.1840 C   0  0  0  0  0  0  0  0  0  0  0  0
    4.6067   -4.3755   -0.7441 C   0  0  0  0  0  0  0  0  0  0  0  0
    4.1599   -4.1881   -2.0484 C   0  0  0  0  0  0  0  0  0  0  0  0
    3.6220   -2.9609   -2.4253 C   0  0  0  0  0  0  0  0  0  0  0  0
    3.5314   -1.9169   -1.4997 C   0  0  0  0  0  0  0  0  0  0  0  0
    3.1586    1.6382   -0.3879 C   0  0  0  0  0  0  0  0  0  0  0  0
    2.3071    2.5992   -0.9394 C   0  0  0  0  0  0  0  0  0  0  0  0
    0.9203    2.5788   -0.6449 C   0  0  0  0  0  0  0  0  0  0  0  0
    0.1259    3.5319   -1.3369 C   0  0  0  0  0  0  0  0  0  0  0  0
    0.6692    4.4863   -2.2019 C   0  0  0  0  0  0  0  0  0  0  0  0
    2.0348    4.5117   -2.4266 C   0  0  0  0  0  0  0  0  0  0  0  0
    2.8459    3.5679   -1.8044 C   0  0  0  0  0  0  0  0  0  0  0  0
    0.3853    1.5971    0.2658 C   0  0  0  0  0  0  0  0  0  0  0  0
   -1.0061    1.6060    0.6902 C   0  0  0  0  0  0  0  0  0  0  0  0
   -1.8089    0.4509    0.5045 C   0  0  0  0  0  0  0  0  0  0  0  0
   -1.1821   -0.6787    0.0530 O   0  0  0  0  0  0  0  0  0  0  0  0
   -3.1997    0.4026    0.7058 C   0  0  0  0  0  0  0  0  0  0  0  0
   -4.3089   -1.1071    0.3949 Si  0  0  0  0  0  0  0  0  0  0  0  0
   -3.3624   -2.4951   -0.4661 C   0  0  0  0  0  0  0  0  0  0  0  0
   -2.9512   -2.3912   -1.8084 C   0  0  0  0  0  0  0  0  0  0  0  0
   -2.2527   -3.4296   -2.4318 C   0  0  0  0  0  0  0  0  0  0  0  0
   -1.9564   -4.5950   -1.7313 C   0  0  0  0  0  0  0  0  0  0  0  0
   -2.3543   -4.7221   -0.4043 C   0  0  0  0  0  0  0  0  0  0  0  0
   -3.0484   -3.6831    0.2230 C   0  0  0  0  0  0  0  0  0  0  0  0
   -5.5996   -0.5484   -0.8827 C   0  0  0  0  0  0  0  0  0  0  0  0
   -6.8591   -1.1765   -0.9362 C   0  0  0  0  0  0  0  0  0  0  0  0
   -7.8214   -0.7781   -1.8684 C   0  0  0  0  0  0  0  0  0  0  0  0
   -7.5442    0.2501   -2.7647 C   0  0  0  0  0  0  0  0  0  0  0  0
   -6.3032    0.8796   -2.7332 C   0  0  0  0  0  0  0  0  0  0  0  0
   -5.3377    0.4844   -1.8032 C   0  0  0  0  0  0  0  0  0  0  0  0
   -5.1108   -1.6546    1.9877 C   0  0  0  0  0  0  0  0  0  0  0  0
   -3.8048    1.5703    1.1993 C   0  0  0  0  0  0  0  0  0  0  0  0
   -3.0659    2.7214    1.4973 C   0  0  0  0  0  0  0  0  0  0  0  0
   -1.6664    2.7486    1.2674 C   0  0  0  0  0  0  0  0  0  0  0  0
   -0.9842    3.9227    1.6772 C   0  0  0  0  0  0  0  0  0  0  0  0
   -1.6472    5.0263    2.2207 C   0  0  0  0  0  0  0  0  0  0  0  0
   -3.0217    4.9889    2.3903 C   0  0  0  0  0  0  0  0  0  0  0  0
   -3.7244    3.8406    2.0363 C   0  0  0  0  0  0  0  0  0  0  0  0
   -0.0058   -3.1822   -0.1514 H   0  0  0  0  0  0  0  0  0  0  0  0
    6.4027   -0.8793   -0.6457 H   0  0  0  0  0  0  0  0  0  0  0  0
    8.5761    0.2452   -0.5806 H   0  0  0  0  0  0  0  0  0  0  0  0
    9.0816    1.9159    1.1796 H   0  0  0  0  0  0  0  0  0  0  0  0
    7.3817    2.4562    2.8986 H   0  0  0  0  0  0  0  0  0  0  0  0
    5.1860    1.3560    2.8689 H   0  0  0  0  0  0  0  0  0  0  0  0
    2.6051   -1.9863    2.7854 H   0  0  0  0  0  0  0  0  0  0  0  0
    3.2601   -0.5001    3.4897 H   0  0  0  0  0  0  0  0  0  0  0  0
    4.3110   -1.8960    3.2256 H   0  0  0  0  0  0  0  0  0  0  0  0
    4.8821   -3.5159    1.1939 H   0  0  0  0  0  0  0  0  0  0  0  0
    5.0274   -5.3323   -0.4459 H   0  0  0  0  0  0  0  0  0  0  0  0
    4.2303   -4.9966   -2.7706 H   0  0  0  0  0  0  0  0  0  0  0  0
    3.2732   -2.8112   -3.4438 H   0  0  0  0  0  0  0  0  0  0  0  0
    3.1017   -0.9757   -1.8372 H   0  0  0  0  0  0  0  0  0  0  0  0
    4.2186    1.6846   -0.6420 H   0  0  0  0  0  0  0  0  0  0  0  0
   -0.9561    3.5366   -1.2200 H   0  0  0  0  0  0  0  0  0  0  0  0
    0.0182    5.2000   -2.6992 H   0  0  0  0  0  0  0  0  0  0  0  0
    2.4685    5.2486   -3.0966 H   0  0  0  0  0  0  0  0  0  0  0  0
    3.9147    3.5871   -2.0123 H   0  0  0  0  0  0  0  0  0  0  0  0
   -3.1594   -1.4934   -2.3891 H   0  0  0  0  0  0  0  0  0  0  0  0
   -1.9484   -3.3267   -3.4708 H   0  0  0  0  0  0  0  0  0  0  0  0
   -1.4244   -5.4055   -2.2227 H   0  0  0  0  0  0  0  0  0  0  0  0
   -2.1305   -5.6320    0.1479 H   0  0  0  0  0  0  0  0  0  0  0  0
   -3.3318   -3.8191    1.2667 H   0  0  0  0  0  0  0  0  0  0  0  0
   -7.1104   -1.9902   -0.2576 H   0  0  0  0  0  0  0  0  0  0  0  0
   -8.7880   -1.2749   -1.8956 H   0  0  0  0  0  0  0  0  0  0  0  0
   -8.2931    0.5578   -3.4896 H   0  0  0  0  0  0  0  0  0  0  0  0
   -6.0819    1.6798   -3.4347 H   0  0  0  0  0  0  0  0  0  0  0  0
   -4.3772    0.9974   -1.8160 H   0  0  0  0  0  0  0  0  0  0  0  0
   -4.3552   -1.8910    2.7434 H   0  0  0  0  0  0  0  0  0  0  0  0
   -5.7544   -0.8680    2.3934 H   0  0  0  0  0  0  0  0  0  0  0  0
   -5.7258   -2.5470    1.8369 H   0  0  0  0  0  0  0  0  0  0  0  0
   -4.8820    1.5852    1.3778 H   0  0  0  0  0  0  0  0  0  0  0  0
    0.0986    3.9896    1.5857 H   0  0  0  0  0  0  0  0  0  0  0  0
   -1.0821    5.9074    2.5123 H   0  0  0  0  0  0  0  0  0  0  0  0
   -3.5462    5.8425    2.8113 H   0  0  0  0  0  0  0  0  0  0  0  0
   -4.8011    3.8229    2.1980 H   0  0  0  0  0  0  0  0  0  0  0  0
  2  4  1  0  0  0  0
  2  1  2  0  0  0  0
  3  2  1  0  0  0  0
  5  4  1  0  0  0  0
  6  5  1  0  0  0  0
  6  7  1  0  0  0  0
  7  8  1  0  0  0  0
  7 14  1  0  0  0  0
  8 13  2  0  0  0  0
  9 10  2  0  0  0  0
  9  8  1  0  0  0  0
 10 11  1  0  0  0  0
 11 57  1  0  0  0  0
 11 12  2  0  0  0  0
 12 58  1  0  0  0  0
 13 12  1  0  0  0  0
 13 59  1  0  0  0  0
 14 62  1  0  0  0  0
 14 61  1  0  0  0  0
 15 16  1  0  0  0  0
 15  7  1  0  0  0  0
 16 63  1  0  0  0  0
 17 64  1  0  0  0  0
 17 16  2  0  0  0  0
 18 17  1  0  0  0  0
 19 18  2  0  0  0  0
 19 20  1  0  0  0  0
 20 15  2  0  0  0  0
 21  6  2  0  0  0  0
 22 23  1  0  0  0  0
 22 21  1  0  0  0  0
 23 28  1  0  0  0  0
 24 69  1  0  0  0  0
 24 23  2  0  0  0  0
 25 24  1  0  0  0  0
 26 25  2  0  0  0  0
 26 27  1  0  0  0  0
 27 22  2  0  0  0  0
 28 29  1  0  0  0  0
 28  5  2  0  0  0  0
 29 49  1  0  0  0  0
 30 29  2  0  0  0  0
 30 32  1  0  0  0  0
 31 30  1  0  0  0  0
 31  2  1  0  0  0  0
 32 47  2  0  0  0  0
 33 32  1  0  0  0  0
 33 46  1  0  0  0  0
 34 39  2  0  0  0  0
 34 33  1  0  0  0  0
 35 34  1  0  0  0  0
 36 35  2  0  0  0  0
 36 37  1  0  0  0  0
 37 38  2  0  0  0  0
 38 76  1  0  0  0  0
 38 39  1  0  0  0  0
 39 77  1  0  0  0  0
 40 33  1  0  0  0  0
 41 40  1  0  0  0  0
 41 78  1  0  0  0  0
 42 41  2  0  0  0  0
 43 44  2  0  0  0  0
 43 42  1  0  0  0  0
 44 45  1  0  0  0  0
 45 40  2  0  0  0  0
 46 84  1  0  0  0  0
 46 83  1  0  0  0  0
 47 86  1  0  0  0  0
 47 48  1  0  0  0  0
 48 53  1  0  0  0  0
 49 48  2  0  0  0  0
 49 50  1  0  0  0  0
 50 51  2  0  0  0  0
 51 52  1  0  0  0  0
 51 88  1  0  0  0  0
 52 89  1  0  0  0  0
 53 90  1  0  0  0  0
 53 52  2  0  0  0  0
 54  3  1  0  0  0  0
 55  9  1  0  0  0  0
 56 10  1  0  0  0  0
 60 14  1  0  0  0  0
 65 18  1  0  0  0  0
 66 19  1  0  0  0  0
 67 20  1  0  0  0  0
 68 21  1  0  0  0  0
 70 25  1  0  0  0  0
 71 26  1  0  0  0  0
 72 27  1  0  0  0  0
 73 35  1  0  0  0  0
 74 36  1  0  0  0  0
 75 37  1  0  0  0  0
 79 42  1  0  0  0  0
 80 43  1  0  0  0  0
 81 44  1  0  0  0  0
 82 45  1  0  0  0  0
 85 46  1  0  0  0  0
 87 50  1  0  0  0  0
M  END
$$$$
