O=P1(O)OC2=C(CC3=CC(C(F)(F)F)=CC(C(F)(F)F)=C3)C=C4C(CCCC4)=C2C5=C(O1)C(CC6=CC(C(F)(F)F)=CC(C(F)(F)F)=C6)=CC7=C5CCCC7
 OpenBabel09032010373D

 84 89  0  0  0  0  0  0  0  0999 V2000
   -0.6349    3.0753   -0.4410 O   0  0  0  0  0  0  0  0  0  0  0  0
   -0.3144    1.6562   -0.0412 P   0  0  0  0  0  0  0  0  0  0  0  0
   -0.9089    1.3387    1.4276 O   0  0  0  0  0  0  0  0  0  0  0  0
    1.2661    1.3425    0.0636 O   0  0  0  0  0  0  0  0  0  0  0  0
    1.6702    0.1400    0.5727 C   0  0  0  0  0  0  0  0  0  0  0  0
    2.4140    0.1428    1.7704 C   0  0  0  0  0  0  0  0  0  0  0  0
    2.9642    1.4108    2.4130 C   0  0  0  0  0  0  0  0  0  0  0  0
    1.9092    2.3830    2.8916 C   0  0  0  0  0  0  0  0  0  0  0  0
    1.2000    2.1643    4.0784 C   0  0  0  0  0  0  0  0  0  0  0  0
    0.0786    2.9501    4.4025 C   0  0  0  0  0  0  0  0  0  0  0  0
   -0.7217    2.6408    5.6434 C   0  0  0  0  0  0  0  0  0  0  0  0
   -1.5236    1.5521    5.4787 F   0  0  0  0  0  0  0  0  0  0  0  0
   -1.5407    3.6573    6.0294 F   0  0  0  0  0  0  0  0  0  0  0  0
    0.0641    2.3646    6.7218 F   0  0  0  0  0  0  0  0  0  0  0  0
   -0.3579    3.9309    3.4954 C   0  0  0  0  0  0  0  0  0  0  0  0
    0.3392    4.1512    2.3015 C   0  0  0  0  0  0  0  0  0  0  0  0
   -0.2590    4.9330    1.1474 C   0  0  0  0  0  0  0  0  0  0  0  0
   -0.4166    4.1229    0.0537 F   0  0  0  0  0  0  0  0  0  0  0  0
   -1.4912    5.4432    1.4019 F   0  0  0  0  0  0  0  0  0  0  0  0
    0.5215    5.9780    0.7581 F   0  0  0  0  0  0  0  0  0  0  0  0
    1.5243    3.4405    2.0606 C   0  0  0  0  0  0  0  0  0  0  0  0
    2.6898   -1.0912    2.3619 C   0  0  0  0  0  0  0  0  0  0  0  0
    2.2201   -2.2869    1.7995 C   0  0  0  0  0  0  0  0  0  0  0  0
    1.5087   -2.2599    0.5762 C   0  0  0  0  0  0  0  0  0  0  0  0
    0.8856   -3.5457    0.0455 C   0  0  0  0  0  0  0  0  0  0  0  0
    0.7715   -4.6545    1.0902 C   0  0  0  0  0  0  0  0  0  0  0  0
    2.1029   -4.8303    1.8007 C   0  0  0  0  0  0  0  0  0  0  0  0
    2.4477   -3.5646    2.5762 C   0  0  0  0  0  0  0  0  0  0  0  0
    1.3101   -1.0310   -0.1253 C   0  0  0  0  0  0  0  0  0  0  0  0
    0.8022   -0.9620   -1.4747 C   0  0  0  0  0  0  0  0  0  0  0  0
   -0.4130   -0.2941   -1.8001 C   0  0  0  0  0  0  0  0  0  0  0  0
   -1.0315    0.4684   -0.8490 O   0  0  0  0  0  0  0  0  0  0  0  0
   -1.0711   -0.4670   -3.0373 C   0  0  0  0  0  0  0  0  0  0  0  0
   -2.4555    0.0444   -3.4355 C   0  0  0  0  0  0  0  0  0  0  0  0
   -3.2983    0.7556   -2.4043 C   0  0  0  0  0  0  0  0  0  0  0  0
   -3.0530    2.1074   -2.1490 C   0  0  0  0  0  0  0  0  0  0  0  0
   -3.6083    2.7401   -1.0281 C   0  0  0  0  0  0  0  0  0  0  0  0
   -2.9959    4.0584   -0.5978 C   0  0  0  0  0  0  0  0  0  0  0  0
   -3.0829    5.0164   -1.5618 F   0  0  0  0  0  0  0  0  0  0  0  0
   -3.5759    4.5885    0.5150 F   0  0  0  0  0  0  0  0  0  0  0  0
   -1.6649    3.9081   -0.3152 F   0  0  0  0  0  0  0  0  0  0  0  0
   -4.5433    2.0497   -0.2427 C   0  0  0  0  0  0  0  0  0  0  0  0
   -4.8620    0.7086   -0.5255 C   0  0  0  0  0  0  0  0  0  0  0  0
   -5.7238   -0.0800    0.4392 C   0  0  0  0  0  0  0  0  0  0  0  0
   -6.2965   -1.1841   -0.1103 F   0  0  0  0  0  0  0  0  0  0  0  0
   -6.7341    0.6494    0.9830 F   0  0  0  0  0  0  0  0  0  0  0  0
   -4.9638   -0.5187    1.4846 F   0  0  0  0  0  0  0  0  0  0  0  0
   -4.2209    0.0672   -1.6017 C   0  0  0  0  0  0  0  0  0  0  0  0
   -0.3955   -1.1906   -4.0302 C   0  0  0  0  0  0  0  0  0  0  0  0
    0.8842   -1.7158   -3.8216 C   0  0  0  0  0  0  0  0  0  0  0  0
    1.4967   -1.5794   -2.5583 C   0  0  0  0  0  0  0  0  0  0  0  0
    2.9445   -2.0280   -2.3851 C   0  0  0  0  0  0  0  0  0  0  0  0
    3.6973   -2.2231   -3.7001 C   0  0  0  0  0  0  0  0  0  0  0  0
    2.8699   -3.0811   -4.6416 C   0  0  0  0  0  0  0  0  0  0  0  0
    1.5802   -2.3548   -5.0019 C   0  0  0  0  0  0  0  0  0  0  0  0
   -0.7706    0.4062    1.6864 H   0  0  0  0  0  0  0  0  0  0  0  0
    3.6326    1.8996    1.6918 H   0  0  0  0  0  0  0  0  0  0  0  0
    3.6071    1.1570    3.2662 H   0  0  0  0  0  0  0  0  0  0  0  0
    1.4865    1.3435    4.7356 H   0  0  0  0  0  0  0  0  0  0  0  0
   -1.2881    4.4688    3.6833 H   0  0  0  0  0  0  0  0  0  0  0  0
    2.0515    3.6083    1.1194 H   0  0  0  0  0  0  0  0  0  0  0  0
    3.2524   -1.1299    3.2944 H   0  0  0  0  0  0  0  0  0  0  0  0
   -0.1232   -3.3384   -0.3313 H   0  0  0  0  0  0  0  0  0  0  0  0
    1.4791   -3.9291   -0.7875 H   0  0  0  0  0  0  0  0  0  0  0  0
    0.4763   -5.5901    0.6020 H   0  0  0  0  0  0  0  0  0  0  0  0
   -0.0120   -4.4092    1.8183 H   0  0  0  0  0  0  0  0  0  0  0  0
    2.8891   -5.0467    1.0663 H   0  0  0  0  0  0  0  0  0  0  0  0
    2.0604   -5.6837    2.4865 H   0  0  0  0  0  0  0  0  0  0  0  0
    3.4953   -3.6213    2.8956 H   0  0  0  0  0  0  0  0  0  0  0  0
    1.8282   -3.5219    3.4813 H   0  0  0  0  0  0  0  0  0  0  0  0
   -3.0366   -0.8108   -3.8082 H   0  0  0  0  0  0  0  0  0  0  0  0
   -2.3317    0.7186   -4.2947 H   0  0  0  0  0  0  0  0  0  0  0  0
   -2.2958    2.6376   -2.7305 H   0  0  0  0  0  0  0  0  0  0  0  0
   -4.9722    2.5283    0.6407 H   0  0  0  0  0  0  0  0  0  0  0  0
   -4.3969   -0.9945   -1.7748 H   0  0  0  0  0  0  0  0  0  0  0  0
   -0.8620   -1.3171   -5.0079 H   0  0  0  0  0  0  0  0  0  0  0  0
    3.4943   -1.2830   -1.7975 H   0  0  0  0  0  0  0  0  0  0  0  0
    2.9767   -2.9732   -1.8386 H   0  0  0  0  0  0  0  0  0  0  0  0
    3.9061   -1.2511   -4.1647 H   0  0  0  0  0  0  0  0  0  0  0  0
    4.6638   -2.7005   -3.5031 H   0  0  0  0  0  0  0  0  0  0  0  0
    3.4358   -3.3044   -5.5528 H   0  0  0  0  0  0  0  0  0  0  0  0
    2.6395   -4.0411   -4.1625 H   0  0  0  0  0  0  0  0  0  0  0  0
    1.8089   -1.5623   -5.7262 H   0  0  0  0  0  0  0  0  0  0  0  0
    0.9018   -3.0636   -5.4919 H   0  0  0  0  0  0  0  0  0  0  0  0
  1 41  1  0  0  0  0
  1 18  1  0  0  0  0
  2  4  1  0  0  0  0
  2  3  1  0  0  0  0
  3 56  1  0  0  0  0
  4  5  1  0  0  0  0
  5  6  1  0  0  0  0
  6 22  2  0  0  0  0
  6  7  1  0  0  0  0
  7  8  1  0  0  0  0
  7 58  1  0  0  0  0
  8  9  2  0  0  0  0
  9 10  1  0  0  0  0
  9 59  1  0  0  0  0
 10 11  1  0  0  0  0
 11 13  1  0  0  0  0
 11 14  1  0  0  0  0
 12 11  1  0  0  0  0
 15 60  1  0  0  0  0
 15 10  2  0  0  0  0
 16 15  1  0  0  0  0
 17 19  1  0  0  0  0
 17 16  1  0  0  0  0
 20 17  1  0  0  0  0
 21 16  2  0  0  0  0
 21  8  1  0  0  0  0
 22 62  1  0  0  0  0
 23 22  1  0  0  0  0
 23 28  1  0  0  0  0
 24 23  2  0  0  0  0
 25 24  1  0  0  0  0
 25 26  1  0  0  0  0
 26 27  1  0  0  0  0
 26 66  1  0  0  0  0
 27 68  1  0  0  0  0
 27 28  1  0  0  0  0
 28 69  1  0  0  0  0
 28 70  1  0  0  0  0
 29  5  2  0  0  0  0
 29 24  1  0  0  0  0
 30 29  1  0  0  0  0
 31 30  1  0  0  0  0
 31 32  1  0  0  0  0
 32  2  1  0  0  0  0
 33 31  2  0  0  0  0
 34 33  1  0  0  0  0
 34 35  1  0  0  0  0
 35 36  2  0  0  0  0
 35 48  1  0  0  0  0
 36 37  1  0  0  0  0
 37 38  1  0  0  0  0
 37 42  2  0  0  0  0
 38 40  1  0  0  0  0
 39 38  1  0  0  0  0
 42 74  1  0  0  0  0
 43 42  1  0  0  0  0
 43 44  1  0  0  0  0
 44 46  1  0  0  0  0
 44 47  1  0  0  0  0
 45 44  1  0  0  0  0
 48 43  2  0  0  0  0
 49 50  2  0  0  0  0
 49 33  1  0  0  0  0
 50 51  1  0  0  0  0
 51 52  1  0  0  0  0
 51 30  2  0  0  0  0
 52 78  1  0  0  0  0
 52 77  1  0  0  0  0
 53 80  1  0  0  0  0
 53 52  1  0  0  0  0
 54 82  1  0  0  0  0
 54 53  1  0  0  0  0
 55 54  1  0  0  0  0
 55 50  1  0  0  0  0
 57  7  1  0  0  0  0
 61 21  1  0  0  0  0
 63 25  1  0  0  0  0
 64 25  1  0  0  0  0
 65 26  1  0  0  0  0
 67 27  1  0  0  0  0
 71 34  1  0  0  0  0
 72 34  1  0  0  0  0
 73 36  1  0  0  0  0
 75 48  1  0  0  0  0
 76 49  1  0  0  0  0
 79 53  1  0  0  0  0
 81 54  1  0  0  0  0
 83 55  1  0  0  0  0
 84 55  1  0  0  0  0
M  RAD  2  17   2  38   2
M  END
$$$$
