O=P1(O)OC2=C(CC3=CC=C(C(F)(F)F)C=C3C(F)(F)F)C=C4C(C=CC=C4)=C2C5=C(O1)C(CC6=C(C(F)(F)F)C=C(C(F)(F)F)C=C6)=CC7=C5C=CC=C7
 OpenBabel09032010373D

 76 82  0  0  0  0  0  0  0  0999 V2000
   -0.5494    0.5838    3.2316 O   0  0  0  0  0  0  0  0  0  0  0  0
    0.0829   -0.4988    2.4145 P   0  0  0  0  0  0  0  0  0  0  0  0
    0.9842   -1.4478    3.3513 O   0  0  0  0  0  0  0  0  0  0  0  0
    1.0925   -0.0068    1.2657 O   0  0  0  0  0  0  0  0  0  0  0  0
    1.5874   -0.9261    0.3725 C   0  0  0  0  0  0  0  0  0  0  0  0
    2.9761   -1.1231    0.3925 C   0  0  0  0  0  0  0  0  0  0  0  0
    3.8822   -0.3734    1.3472 C   0  0  0  0  0  0  0  0  0  0  0  0
    4.8854    0.5418    0.6607 C   0  0  0  0  0  0  0  0  0  0  0  0
    6.2111    0.0832    0.5245 C   0  0  0  0  0  0  0  0  0  0  0  0
    7.1785    0.8435   -0.1336 C   0  0  0  0  0  0  0  0  0  0  0  0
    6.8484    2.0844   -0.6832 C   0  0  0  0  0  0  0  0  0  0  0  0
    7.8843    2.9171   -1.3983 C   0  0  0  0  0  0  0  0  0  0  0  0
    7.3722    3.5961   -2.4620 F   0  0  0  0  0  0  0  0  0  0  0  0
    8.9206    2.1821   -1.8903 F   0  0  0  0  0  0  0  0  0  0  0  0
    8.4433    3.8558   -0.5867 F   0  0  0  0  0  0  0  0  0  0  0  0
    5.5358    2.5590   -0.5320 C   0  0  0  0  0  0  0  0  0  0  0  0
    4.5426    1.8109    0.1388 C   0  0  0  0  0  0  0  0  0  0  0  0
    3.1494    2.4065    0.2465 C   0  0  0  0  0  0  0  0  0  0  0  0
    2.2656    1.8454   -0.6195 F   0  0  0  0  0  0  0  0  0  0  0  0
    3.1277    3.7435   -0.0343 F   0  0  0  0  0  0  0  0  0  0  0  0
    2.6114    2.3007    1.4913 F   0  0  0  0  0  0  0  0  0  0  0  0
    3.5209   -2.0537   -0.4946 C   0  0  0  0  0  0  0  0  0  0  0  0
    2.7132   -2.7796   -1.3734 C   0  0  0  0  0  0  0  0  0  0  0  0
    1.3115   -2.5528   -1.4058 C   0  0  0  0  0  0  0  0  0  0  0  0
    0.5628   -3.3947   -2.2679 C   0  0  0  0  0  0  0  0  0  0  0  0
    1.1606   -4.3518   -3.0924 C   0  0  0  0  0  0  0  0  0  0  0  0
    2.5352   -4.5194   -3.0706 C   0  0  0  0  0  0  0  0  0  0  0  0
    3.3049   -3.7417   -2.2105 C   0  0  0  0  0  0  0  0  0  0  0  0
    0.7168   -1.5493   -0.5565 C   0  0  0  0  0  0  0  0  0  0  0  0
   -0.6761   -1.1506   -0.6371 C   0  0  0  0  0  0  0  0  0  0  0  0
   -1.4964   -1.1612    0.5204 C   0  0  0  0  0  0  0  0  0  0  0  0
   -0.9436   -1.5285    1.7250 O   0  0  0  0  0  0  0  0  0  0  0  0
   -2.8738   -0.8939    0.5028 C   0  0  0  0  0  0  0  0  0  0  0  0
   -3.7266   -0.9535    1.7558 C   0  0  0  0  0  0  0  0  0  0  0  0
   -4.5160    0.3184    2.0375 C   0  0  0  0  0  0  0  0  0  0  0  0
   -5.9291    0.3496    2.0795 C   0  0  0  0  0  0  0  0  0  0  0  0
   -6.7675   -0.8878    1.8336 C   0  0  0  0  0  0  0  0  0  0  0  0
   -6.5527   -1.4279    0.6020 F   0  0  0  0  0  0  0  0  0  0  0  0
   -6.5163   -1.8787    2.7330 F   0  0  0  0  0  0  0  0  0  0  0  0
   -8.1095   -0.6596    1.9037 F   0  0  0  0  0  0  0  0  0  0  0  0
   -6.5791    1.5721    2.3566 C   0  0  0  0  0  0  0  0  0  0  0  0
   -5.8579    2.7521    2.5996 C   0  0  0  0  0  0  0  0  0  0  0  0
   -6.5696    4.0562    2.8657 C   0  0  0  0  0  0  0  0  0  0  0  0
   -6.7654    4.7784    1.7286 F   0  0  0  0  0  0  0  0  0  0  0  0
   -5.8919    4.8734    3.7187 F   0  0  0  0  0  0  0  0  0  0  0  0
   -7.8043    3.8872    3.4176 F   0  0  0  0  0  0  0  0  0  0  0  0
   -4.4622    2.7059    2.5516 C   0  0  0  0  0  0  0  0  0  0  0  0
   -3.8025    1.5072    2.2798 C   0  0  0  0  0  0  0  0  0  0  0  0
   -3.4699   -0.6007   -0.7260 C   0  0  0  0  0  0  0  0  0  0  0  0
   -2.7132   -0.4964   -1.8957 C   0  0  0  0  0  0  0  0  0  0  0  0
   -1.3139   -0.7354   -1.8627 C   0  0  0  0  0  0  0  0  0  0  0  0
   -0.6110   -0.4949   -3.0716 C   0  0  0  0  0  0  0  0  0  0  0  0
   -1.2529   -0.1213   -4.2552 C   0  0  0  0  0  0  0  0  0  0  0  0
   -2.6276    0.0473   -4.2693 C   0  0  0  0  0  0  0  0  0  0  0  0
   -3.3515   -0.1317   -3.0940 C   0  0  0  0  0  0  0  0  0  0  0  0
    0.6627   -1.4007    4.2704 H   0  0  0  0  0  0  0  0  0  0  0  0
    4.4173   -1.1211    1.9496 H   0  0  0  0  0  0  0  0  0  0  0  0
    3.3228    0.2009    2.0921 H   0  0  0  0  0  0  0  0  0  0  0  0
    6.5005   -0.8863    0.9290 H   0  0  0  0  0  0  0  0  0  0  0  0
    8.1925    0.4549   -0.2229 H   0  0  0  0  0  0  0  0  0  0  0  0
    5.2796    3.5350   -0.9509 H   0  0  0  0  0  0  0  0  0  0  0  0
    4.5946   -2.2330   -0.4842 H   0  0  0  0  0  0  0  0  0  0  0  0
   -0.5233   -3.3254   -2.3022 H   0  0  0  0  0  0  0  0  0  0  0  0
    0.5447   -4.9654   -3.7444 H   0  0  0  0  0  0  0  0  0  0  0  0
    3.0079   -5.2622   -3.7076 H   0  0  0  0  0  0  0  0  0  0  0  0
    4.3808   -3.9047   -2.1908 H   0  0  0  0  0  0  0  0  0  0  0  0
   -4.3782   -1.8278    1.6620 H   0  0  0  0  0  0  0  0  0  0  0  0
   -3.1182   -1.1503    2.6468 H   0  0  0  0  0  0  0  0  0  0  0  0
   -7.6703    1.6066    2.3849 H   0  0  0  0  0  0  0  0  0  0  0  0
   -3.8738    3.6059    2.7284 H   0  0  0  0  0  0  0  0  0  0  0  0
   -2.7129    1.5111    2.2550 H   0  0  0  0  0  0  0  0  0  0  0  0
   -4.5431   -0.4186   -0.7668 H   0  0  0  0  0  0  0  0  0  0  0  0
    0.4735   -0.5854   -3.1066 H   0  0  0  0  0  0  0  0  0  0  0  0
   -0.6738    0.0385   -5.1611 H   0  0  0  0  0  0  0  0  0  0  0  0
   -3.1334    0.3366   -5.1863 H   0  0  0  0  0  0  0  0  0  0  0  0
   -4.4274    0.0309   -3.1196 H   0  0  0  0  0  0  0  0  0  0  0  0
  2  1  2  0  0  0  0
  2  3  1  0  0  0  0
  3 56  1  0  0  0  0
  4  2  1  0  0  0  0
  5  6  1  0  0  0  0
  5  4  1  0  0  0  0
  6  7  1  0  0  0  0
  7 57  1  0  0  0  0
  7 58  1  0  0  0  0
  8  7  1  0  0  0  0
  9  8  1  0  0  0  0
  9 59  1  0  0  0  0
 10  9  2  0  0  0  0
 11 16  2  0  0  0  0
 11 10  1  0  0  0  0
 12 11  1  0  0  0  0
 12 15  1  0  0  0  0
 13 12  1  0  0  0  0
 14 12  1  0  0  0  0
 16 17  1  0  0  0  0
 17 18  1  0  0  0  0
 17  8  2  0  0  0  0
 18 21  1  0  0  0  0
 19 18  1  0  0  0  0
 20 18  1  0  0  0  0
 22 62  1  0  0  0  0
 22  6  2  0  0  0  0
 23 22  1  0  0  0  0
 24 23  1  0  0  0  0
 24 29  1  0  0  0  0
 25 24  2  0  0  0  0
 26 27  2  0  0  0  0
 26 25  1  0  0  0  0
 27 28  1  0  0  0  0
 28 66  1  0  0  0  0
 28 23  2  0  0  0  0
 29  5  2  0  0  0  0
 30 29  1  0  0  0  0
 30 31  2  0  0  0  0
 31 32  1  0  0  0  0
 32  2  1  0  0  0  0
 33 31  1  0  0  0  0
 33 34  1  0  0  0  0
 34 35  1  0  0  0  0
 34 68  1  0  0  0  0
 35 36  2  0  0  0  0
 35 48  1  0  0  0  0
 36 41  1  0  0  0  0
 37 40  1  0  0  0  0
 37 36  1  0  0  0  0
 37 39  1  0  0  0  0
 38 37  1  0  0  0  0
 41 69  1  0  0  0  0
 41 42  2  0  0  0  0
 42 43  1  0  0  0  0
 43 46  1  0  0  0  0
 43 45  1  0  0  0  0
 44 43  1  0  0  0  0
 47 42  1  0  0  0  0
 47 70  1  0  0  0  0
 48 47  2  0  0  0  0
 49 33  2  0  0  0  0
 50 51  1  0  0  0  0
 50 49  1  0  0  0  0
 51 30  1  0  0  0  0
 52 51  2  0  0  0  0
 53 52  1  0  0  0  0
 54 53  2  0  0  0  0
 54 55  1  0  0  0  0
 55 50  2  0  0  0  0
 60 10  1  0  0  0  0
 61 16  1  0  0  0  0
 63 25  1  0  0  0  0
 64 26  1  0  0  0  0
 65 27  1  0  0  0  0
 67 34  1  0  0  0  0
 71 48  1  0  0  0  0
 72 49  1  0  0  0  0
 73 52  1  0  0  0  0
 74 53  1  0  0  0  0
 75 54  1  0  0  0  0
 76 55  1  0  0  0  0
M  END
$$$$
