O=P1(O)OC2=C(C3=CC=C(C(C)(C)C)C=C3)C=C4C(C=CC=C4)=C2C5=C(O1)C(C6=CC=C(C(C)(C)C)C=C6)=CC7=C5C=CC=C7
 OpenBabel09032010373D

 82 88  0  0  0  0  0  0  0  0999 V2000
    0.5766    1.5362    1.3779 O   0  0  0  0  0  0  0  0  0  0  0  0
   -0.0153    0.6467    0.3296 P   0  0  0  0  0  0  0  0  0  0  0  0
   -0.8843    1.4824   -0.7362 O   0  0  0  0  0  0  0  0  0  0  0  0
    1.0190   -0.1790   -0.5894 O   0  0  0  0  0  0  0  0  0  0  0  0
    1.5611   -1.3270   -0.0527 C   0  0  0  0  0  0  0  0  0  0  0  0
    2.9350   -1.3073    0.2394 C   0  0  0  0  0  0  0  0  0  0  0  0
    3.7758   -0.1323   -0.0169 C   0  0  0  0  0  0  0  0  0  0  0  0
    3.8620    0.9106    0.9088 C   0  0  0  0  0  0  0  0  0  0  0  0
    4.6682    2.0265    0.6569 C   0  0  0  0  0  0  0  0  0  0  0  0
    5.4215    2.1409   -0.5266 C   0  0  0  0  0  0  0  0  0  0  0  0
    6.2924    3.3853   -0.7701 C   0  0  0  0  0  0  0  0  0  0  0  0
    7.0619    3.3565   -2.1101 C   0  0  0  0  0  0  0  0  0  0  0  0
    7.3416    3.5138    0.3554 C   0  0  0  0  0  0  0  0  0  0  0  0
    5.4025    4.6470   -0.7814 C   0  0  0  0  0  0  0  0  0  0  0  0
    5.3292    1.0859   -1.4476 C   0  0  0  0  0  0  0  0  0  0  0  0
    4.5210   -0.0307   -1.1968 C   0  0  0  0  0  0  0  0  0  0  0  0
    3.5086   -2.4613    0.7751 C   0  0  0  0  0  0  0  0  0  0  0  0
    2.7417   -3.5982    1.0448 C   0  0  0  0  0  0  0  0  0  0  0  0
    1.3552   -3.6137    0.7348 C   0  0  0  0  0  0  0  0  0  0  0  0
    0.6390   -4.7743    1.1239 C   0  0  0  0  0  0  0  0  0  0  0  0
    1.2588   -5.8759    1.7203 C   0  0  0  0  0  0  0  0  0  0  0  0
    2.6217   -5.8498    1.9676 C   0  0  0  0  0  0  0  0  0  0  0  0
    3.3562   -4.7146    1.6374 C   0  0  0  0  0  0  0  0  0  0  0  0
    0.7387   -2.4712    0.1061 C   0  0  0  0  0  0  0  0  0  0  0  0
   -0.6282   -2.4521   -0.3769 C   0  0  0  0  0  0  0  0  0  0  0  0
   -1.5158   -1.4267    0.0346 C   0  0  0  0  0  0  0  0  0  0  0  0
   -1.0615   -0.4439    0.8862 O   0  0  0  0  0  0  0  0  0  0  0  0
   -2.8751   -1.3695   -0.3233 C   0  0  0  0  0  0  0  0  0  0  0  0
   -3.7608   -0.2813    0.1214 C   0  0  0  0  0  0  0  0  0  0  0  0
   -4.0832   -0.1082    1.4718 C   0  0  0  0  0  0  0  0  0  0  0  0
   -4.9149    0.9395    1.8903 C   0  0  0  0  0  0  0  0  0  0  0  0
   -5.4576    1.8525    0.9731 C   0  0  0  0  0  0  0  0  0  0  0  0
   -6.3746    3.0128    1.3975 C   0  0  0  0  0  0  0  0  0  0  0  0
   -5.7345    4.3566    0.9866 C   0  0  0  0  0  0  0  0  0  0  0  0
   -7.7467    2.8706    0.7041 C   0  0  0  0  0  0  0  0  0  0  0  0
   -6.6362    3.0781    2.9192 C   0  0  0  0  0  0  0  0  0  0  0  0
   -5.1307    1.6691   -0.3831 C   0  0  0  0  0  0  0  0  0  0  0  0
   -4.2991    0.6237   -0.8008 C   0  0  0  0  0  0  0  0  0  0  0  0
   -3.3726   -2.3781   -1.1496 C   0  0  0  0  0  0  0  0  0  0  0  0
   -2.5463   -3.3915   -1.6438 C   0  0  0  0  0  0  0  0  0  0  0  0
   -1.1705   -3.4292   -1.2899 C   0  0  0  0  0  0  0  0  0  0  0  0
   -0.3897   -4.4274   -1.9276 C   0  0  0  0  0  0  0  0  0  0  0  0
   -0.9388   -5.3717   -2.7994 C   0  0  0  0  0  0  0  0  0  0  0  0
   -2.2941   -5.3409   -3.0831 C   0  0  0  0  0  0  0  0  0  0  0  0
   -3.0903   -4.3515   -2.5140 C   0  0  0  0  0  0  0  0  0  0  0  0
   -1.4380    2.1389   -0.2756 H   0  0  0  0  0  0  0  0  0  0  0  0
    3.2905    0.8715    1.8346 H   0  0  0  0  0  0  0  0  0  0  0  0
    4.6898    2.8137    1.4073 H   0  0  0  0  0  0  0  0  0  0  0  0
    6.3795    3.3050   -2.9664 H   0  0  0  0  0  0  0  0  0  0  0  0
    7.6690    4.2610   -2.2366 H   0  0  0  0  0  0  0  0  0  0  0  0
    7.7444    2.5004   -2.1650 H   0  0  0  0  0  0  0  0  0  0  0  0
    7.9993    4.3745    0.1864 H   0  0  0  0  0  0  0  0  0  0  0  0
    7.9718    2.6182    0.4113 H   0  0  0  0  0  0  0  0  0  0  0  0
    6.8798    3.6527    1.3391 H   0  0  0  0  0  0  0  0  0  0  0  0
    4.6257    4.5749   -1.5519 H   0  0  0  0  0  0  0  0  0  0  0  0
    4.8995    4.8080    0.1784 H   0  0  0  0  0  0  0  0  0  0  0  0
    5.9945    5.5464   -0.9876 H   0  0  0  0  0  0  0  0  0  0  0  0
    5.8761    1.1016   -2.3859 H   0  0  0  0  0  0  0  0  0  0  0  0
    4.4704   -0.8237   -1.9406 H   0  0  0  0  0  0  0  0  0  0  0  0
    4.5732   -2.4561    1.0082 H   0  0  0  0  0  0  0  0  0  0  0  0
   -0.4380   -4.8330    0.9760 H   0  0  0  0  0  0  0  0  0  0  0  0
    0.6688   -6.7466    1.9937 H   0  0  0  0  0  0  0  0  0  0  0  0
    3.1114   -6.7015    2.4316 H   0  0  0  0  0  0  0  0  0  0  0  0
    4.4215   -4.7029    1.8616 H   0  0  0  0  0  0  0  0  0  0  0  0
   -3.6852   -0.7936    2.2185 H   0  0  0  0  0  0  0  0  0  0  0  0
   -5.1214    1.0127    2.9548 H   0  0  0  0  0  0  0  0  0  0  0  0
   -5.6137    4.4436   -0.0987 H   0  0  0  0  0  0  0  0  0  0  0  0
   -4.7427    4.4756    1.4387 H   0  0  0  0  0  0  0  0  0  0  0  0
   -6.3518    5.2034    1.3089 H   0  0  0  0  0  0  0  0  0  0  0  0
   -8.2159    1.9108    0.9512 H   0  0  0  0  0  0  0  0  0  0  0  0
   -8.4320    3.6672    1.0166 H   0  0  0  0  0  0  0  0  0  0  0  0
   -7.6675    2.9265   -0.3872 H   0  0  0  0  0  0  0  0  0  0  0  0
   -5.7061    3.2150    3.4831 H   0  0  0  0  0  0  0  0  0  0  0  0
   -7.1261    2.1677    3.2839 H   0  0  0  0  0  0  0  0  0  0  0  0
   -7.2925    3.9197    3.1715 H   0  0  0  0  0  0  0  0  0  0  0  0
   -5.5220    2.3423   -1.1432 H   0  0  0  0  0  0  0  0  0  0  0  0
   -4.0633    0.5286   -1.8595 H   0  0  0  0  0  0  0  0  0  0  0  0
   -4.4254   -2.3551   -1.4299 H   0  0  0  0  0  0  0  0  0  0  0  0
    0.6852   -4.4767   -1.7631 H   0  0  0  0  0  0  0  0  0  0  0  0
   -0.2992   -6.1218   -3.2571 H   0  0  0  0  0  0  0  0  0  0  0  0
   -2.7294   -6.0700   -3.7606 H   0  0  0  0  0  0  0  0  0  0  0  0
   -4.1477   -4.3266   -2.7715 H   0  0  0  0  0  0  0  0  0  0  0  0
  2 27  1  0  0  0  0
  2  1  2  0  0  0  0
  3 46  1  0  0  0  0
  3  2  1  0  0  0  0
  4  5  1  0  0  0  0
  4  2  1  0  0  0  0
  5 24  2  0  0  0  0
  5  6  1  0  0  0  0
  6 17  2  0  0  0  0
  7  6  1  0  0  0  0
  7  8  2  0  0  0  0
  8 47  1  0  0  0  0
  9  8  1  0  0  0  0
  9 48  1  0  0  0  0
 10  9  2  0  0  0  0
 11 10  1  0  0  0  0
 11 13  1  0  0  0  0
 12 11  1  0  0  0  0
 13 53  1  0  0  0  0
 13 54  1  0  0  0  0
 14 11  1  0  0  0  0
 14 56  1  0  0  0  0
 15 16  2  0  0  0  0
 15 10  1  0  0  0  0
 16  7  1  0  0  0  0
 17 60  1  0  0  0  0
 17 18  1  0  0  0  0
 18 23  1  0  0  0  0
 19 18  2  0  0  0  0
 19 20  1  0  0  0  0
 20 21  2  0  0  0  0
 21 22  1  0  0  0  0
 21 62  1  0  0  0  0
 22 63  1  0  0  0  0
 23 64  1  0  0  0  0
 23 22  2  0  0  0  0
 24 19  1  0  0  0  0
 25 26  2  0  0  0  0
 25 24  1  0  0  0  0
 26 27  1  0  0  0  0
 28 26  1  0  0  0  0
 28 29  1  0  0  0  0
 29 30  2  0  0  0  0
 30 31  1  0  0  0  0
 30 65  1  0  0  0  0
 31 66  1  0  0  0  0
 32 33  1  0  0  0  0
 32 31  2  0  0  0  0
 33 36  1  0  0  0  0
 34 69  1  0  0  0  0
 34 33  1  0  0  0  0
 34 68  1  0  0  0  0
 35 70  1  0  0  0  0
 35 71  1  0  0  0  0
 35 33  1  0  0  0  0
 36 75  1  0  0  0  0
 36 74  1  0  0  0  0
 36 73  1  0  0  0  0
 37 32  1  0  0  0  0
 38 37  2  0  0  0  0
 38 29  1  0  0  0  0
 39 28  2  0  0  0  0
 40 41  1  0  0  0  0
 40 39  1  0  0  0  0
 41 25  1  0  0  0  0
 42 79  1  0  0  0  0
 42 41  2  0  0  0  0
 43 42  1  0  0  0  0
 44 43  2  0  0  0  0
 44 45  1  0  0  0  0
 45 40  2  0  0  0  0
 49 12  1  0  0  0  0
 50 12  1  0  0  0  0
 51 12  1  0  0  0  0
 52 13  1  0  0  0  0
 55 14  1  0  0  0  0
 57 14  1  0  0  0  0
 58 15  1  0  0  0  0
 59 16  1  0  0  0  0
 61 20  1  0  0  0  0
 67 34  1  0  0  0  0
 72 35  1  0  0  0  0
 76 37  1  0  0  0  0
 77 38  1  0  0  0  0
 78 39  1  0  0  0  0
 80 43  1  0  0  0  0
 81 44  1  0  0  0  0
 82 45  1  0  0  0  0
M  END
$$$$
