O=P1(O)OC2=C(C3=CC(COC)=CC=C3)C=C4C(CCCC4)=C2C5=C(O1)C(C6=CC=CC(COC)=C6)=CC7=C5CCCC7
 OpenBabel09032010383D

 80 86  0  0  0  0  0  0  0  0999 V2000
   -0.5937    2.7527    0.6166 O   0  0  0  0  0  0  0  0  0  0  0  0
    0.0480    1.4639    1.0314 P   0  0  0  0  0  0  0  0  0  0  0  0
    1.0673    1.6878    2.2569 O   0  0  0  0  0  0  0  0  0  0  0  0
   -0.9387    0.3067    1.5680 O   0  0  0  0  0  0  0  0  0  0  0  0
   -1.5686   -0.4783    0.6271 C   0  0  0  0  0  0  0  0  0  0  0  0
   -2.9629   -0.3534    0.5007 C   0  0  0  0  0  0  0  0  0  0  0  0
   -3.7522    0.5591    1.3378 C   0  0  0  0  0  0  0  0  0  0  0  0
   -3.7886    1.9353    1.0635 C   0  0  0  0  0  0  0  0  0  0  0  0
   -4.5396    2.8208    1.8534 C   0  0  0  0  0  0  0  0  0  0  0  0
   -4.4913    4.3009    1.5654 C   0  0  0  0  0  0  0  0  0  0  0  0
   -5.7473    4.9109    1.8700 O   0  0  0  0  0  0  0  0  0  0  0  0
   -5.7199    6.3067    1.6082 C   0  0  0  0  0  0  0  0  0  0  0  0
   -5.2569    2.3083    2.9413 C   0  0  0  0  0  0  0  0  0  0  0  0
   -5.2396    0.9422    3.2217 C   0  0  0  0  0  0  0  0  0  0  0  0
   -4.4924    0.0739    2.4248 C   0  0  0  0  0  0  0  0  0  0  0  0
   -3.6048   -1.1322   -0.4652 C   0  0  0  0  0  0  0  0  0  0  0  0
   -2.8849   -1.9869   -1.3112 C   0  0  0  0  0  0  0  0  0  0  0  0
   -1.4817   -2.0978   -1.1681 C   0  0  0  0  0  0  0  0  0  0  0  0
   -0.6947   -2.9182   -2.1838 C   0  0  0  0  0  0  0  0  0  0  0  0
   -1.4601   -3.2084   -3.4737 C   0  0  0  0  0  0  0  0  0  0  0  0
   -2.8386   -3.7542   -3.1416 C   0  0  0  0  0  0  0  0  0  0  0  0
   -3.6505   -2.6960   -2.4049 C   0  0  0  0  0  0  0  0  0  0  0  0
   -0.7965   -1.3995   -0.1223 C   0  0  0  0  0  0  0  0  0  0  0  0
    0.6023   -1.5804    0.1651 C   0  0  0  0  0  0  0  0  0  0  0  0
    1.4847   -0.4746    0.1316 C   0  0  0  0  0  0  0  0  0  0  0  0
    0.9733    0.7829   -0.0996 O   0  0  0  0  0  0  0  0  0  0  0  0
    2.8798   -0.5772    0.2873 C   0  0  0  0  0  0  0  0  0  0  0  0
    3.7666    0.5974    0.2296 C   0  0  0  0  0  0  0  0  0  0  0  0
    4.5018    0.9935    1.3574 C   0  0  0  0  0  0  0  0  0  0  0  0
    5.3334    2.1129    1.3126 C   0  0  0  0  0  0  0  0  0  0  0  0
    5.4465    2.8515    0.1357 C   0  0  0  0  0  0  0  0  0  0  0  0
    4.7389    2.4752   -1.0131 C   0  0  0  0  0  0  0  0  0  0  0  0
    4.8208    3.2829   -2.2862 C   0  0  0  0  0  0  0  0  0  0  0  0
    6.1313    3.8281   -2.4477 O   0  0  0  0  0  0  0  0  0  0  0  0
    6.2397    4.5812   -3.6474 C   0  0  0  0  0  0  0  0  0  0  0  0
    3.8930    1.3549   -0.9476 C   0  0  0  0  0  0  0  0  0  0  0  0
    3.4145   -1.8459    0.5208 C   0  0  0  0  0  0  0  0  0  0  0  0
    2.5895   -2.9697    0.6626 C   0  0  0  0  0  0  0  0  0  0  0  0
    1.1867   -2.8409    0.5077 C   0  0  0  0  0  0  0  0  0  0  0  0
    0.3066   -4.0068    0.9448 C   0  0  0  0  0  0  0  0  0  0  0  0
    0.9928   -5.3653    0.8360 C   0  0  0  0  0  0  0  0  0  0  0  0
    2.3242   -5.3319    1.5678 C   0  0  0  0  0  0  0  0  0  0  0  0
    3.2504   -4.3026    0.9328 C   0  0  0  0  0  0  0  0  0  0  0  0
    1.5967    2.4927    2.1121 H   0  0  0  0  0  0  0  0  0  0  0  0
   -3.2139    2.3256    0.2243 H   0  0  0  0  0  0  0  0  0  0  0  0
   -4.2685    4.4683    0.5048 H   0  0  0  0  0  0  0  0  0  0  0  0
   -3.7006    4.7536    2.1753 H   0  0  0  0  0  0  0  0  0  0  0  0
   -5.5232    6.4951    0.5484 H   0  0  0  0  0  0  0  0  0  0  0  0
   -4.9620    6.7983    2.2258 H   0  0  0  0  0  0  0  0  0  0  0  0
   -6.6987    6.7234    1.8602 H   0  0  0  0  0  0  0  0  0  0  0  0
   -5.8355    2.9775    3.5749 H   0  0  0  0  0  0  0  0  0  0  0  0
   -5.8036    0.5554    4.0661 H   0  0  0  0  0  0  0  0  0  0  0  0
   -4.4813   -0.9877    2.6617 H   0  0  0  0  0  0  0  0  0  0  0  0
   -4.6840   -1.0404   -0.5882 H   0  0  0  0  0  0  0  0  0  0  0  0
   -0.4118   -3.8765   -1.7392 H   0  0  0  0  0  0  0  0  0  0  0  0
    0.2259   -2.3884   -2.4560 H   0  0  0  0  0  0  0  0  0  0  0  0
   -0.9016   -3.9328   -4.0771 H   0  0  0  0  0  0  0  0  0  0  0  0
   -1.5537   -2.2935   -4.0723 H   0  0  0  0  0  0  0  0  0  0  0  0
   -3.3626   -4.0516   -4.0567 H   0  0  0  0  0  0  0  0  0  0  0  0
   -2.7412   -4.6533   -2.5199 H   0  0  0  0  0  0  0  0  0  0  0  0
   -3.9853   -1.9391   -3.1259 H   0  0  0  0  0  0  0  0  0  0  0  0
   -4.5457   -3.1685   -1.9829 H   0  0  0  0  0  0  0  0  0  0  0  0
    4.4205    0.4322    2.2865 H   0  0  0  0  0  0  0  0  0  0  0  0
    5.8962    2.4088    2.1942 H   0  0  0  0  0  0  0  0  0  0  0  0
    6.1008    3.7213    0.1116 H   0  0  0  0  0  0  0  0  0  0  0  0
    4.5975    2.6429   -3.1481 H   0  0  0  0  0  0  0  0  0  0  0  0
    4.0849    4.0941   -2.2386 H   0  0  0  0  0  0  0  0  0  0  0  0
    7.2565    4.9772   -3.7148 H   0  0  0  0  0  0  0  0  0  0  0  0
    6.0546    3.9446   -4.5180 H   0  0  0  0  0  0  0  0  0  0  0  0
    5.5377    5.4205   -3.6379 H   0  0  0  0  0  0  0  0  0  0  0  0
    3.3241    1.0607   -1.8288 H   0  0  0  0  0  0  0  0  0  0  0  0
    4.4936   -1.9580    0.6230 H   0  0  0  0  0  0  0  0  0  0  0  0
    0.0340   -3.8275    1.9937 H   0  0  0  0  0  0  0  0  0  0  0  0
   -0.6319   -4.0611    0.3923 H   0  0  0  0  0  0  0  0  0  0  0  0
    1.1501   -5.6265   -0.2179 H   0  0  0  0  0  0  0  0  0  0  0  0
    0.3484   -6.1381    1.2697 H   0  0  0  0  0  0  0  0  0  0  0  0
    2.7965   -6.3202    1.5426 H   0  0  0  0  0  0  0  0  0  0  0  0
    2.1577   -5.0825    2.6234 H   0  0  0  0  0  0  0  0  0  0  0  0
    3.6222   -4.6907   -0.0240 H   0  0  0  0  0  0  0  0  0  0  0  0
    4.1183   -4.1654    1.5892 H   0  0  0  0  0  0  0  0  0  0  0  0
  1  2  2  0  0  0  0
  2  4  1  0  0  0  0
  2  3  1  0  0  0  0
  5  4  1  0  0  0  0
  6  5  1  0  0  0  0
  6  7  1  0  0  0  0
  7 15  1  0  0  0  0
  8  7  2  0  0  0  0
  8  9  1  0  0  0  0
  9 13  2  0  0  0  0
 10  9  1  0  0  0  0
 10 11  1  0  0  0  0
 10 47  1  0  0  0  0
 12 50  1  0  0  0  0
 12 11  1  0  0  0  0
 12 49  1  0  0  0  0
 13 14  1  0  0  0  0
 13 51  1  0  0  0  0
 14 52  1  0  0  0  0
 15 53  1  0  0  0  0
 15 14  2  0  0  0  0
 16  6  2  0  0  0  0
 17 18  2  0  0  0  0
 17 16  1  0  0  0  0
 18 23  1  0  0  0  0
 19 55  1  0  0  0  0
 19 18  1  0  0  0  0
 20 21  1  0  0  0  0
 20 19  1  0  0  0  0
 21 60  1  0  0  0  0
 21 22  1  0  0  0  0
 22 62  1  0  0  0  0
 22 17  1  0  0  0  0
 23 24  1  0  0  0  0
 23  5  2  0  0  0  0
 24 39  1  0  0  0  0
 25 24  2  0  0  0  0
 25 27  1  0  0  0  0
 26 25  1  0  0  0  0
 26  2  1  0  0  0  0
 27 37  2  0  0  0  0
 28 27  1  0  0  0  0
 28 29  2  0  0  0  0
 29 63  1  0  0  0  0
 30 29  1  0  0  0  0
 30 64  1  0  0  0  0
 31 30  2  0  0  0  0
 32 36  2  0  0  0  0
 32 31  1  0  0  0  0
 33 67  1  0  0  0  0
 33 32  1  0  0  0  0
 34 33  1  0  0  0  0
 35 70  1  0  0  0  0
 35 34  1  0  0  0  0
 36 28  1  0  0  0  0
 37 72  1  0  0  0  0
 37 38  1  0  0  0  0
 38 43  1  0  0  0  0
 39 38  2  0  0  0  0
 39 40  1  0  0  0  0
 40 73  1  0  0  0  0
 41 40  1  0  0  0  0
 41 76  1  0  0  0  0
 41 42  1  0  0  0  0
 42 78  1  0  0  0  0
 43 42  1  0  0  0  0
 43 80  1  0  0  0  0
 44  3  1  0  0  0  0
 45  8  1  0  0  0  0
 46 10  1  0  0  0  0
 48 12  1  0  0  0  0
 54 16  1  0  0  0  0
 56 19  1  0  0  0  0
 57 20  1  0  0  0  0
 58 20  1  0  0  0  0
 59 21  1  0  0  0  0
 61 22  1  0  0  0  0
 65 31  1  0  0  0  0
 66 33  1  0  0  0  0
 68 35  1  0  0  0  0
 69 35  1  0  0  0  0
 71 36  1  0  0  0  0
 74 40  1  0  0  0  0
 75 41  1  0  0  0  0
 77 42  1  0  0  0  0
 79 43  1  0  0  0  0
M  END
$$$$
