O=P1(O)OC2=C(C3=CC(COC)=CC=C3)C=C4C(C=CC=C4)=C2C5=C(O1)C(C6=CC=CC(COC)=C6)=CC7=C5C=CC=C7
 OpenBabel09032010383D

 72 78  0  0  0  0  0  0  0  0999 V2000
   -0.7455    2.2166   -0.6979 O   0  0  0  0  0  0  0  0  0  0  0  0
   -0.0938    1.1831    0.1661 P   0  0  0  0  0  0  0  0  0  0  0  0
    0.6789    1.8183    1.4300 O   0  0  0  0  0  0  0  0  0  0  0  0
    1.0149    0.2714   -0.5619 O   0  0  0  0  0  0  0  0  0  0  0  0
    1.5673   -0.7966    0.1071 C   0  0  0  0  0  0  0  0  0  0  0  0
    2.9529   -0.7270    0.3532 C   0  0  0  0  0  0  0  0  0  0  0  0
    3.7690    0.3980   -0.1246 C   0  0  0  0  0  0  0  0  0  0  0  0
    3.7919    1.6177    0.5674 C   0  0  0  0  0  0  0  0  0  0  0  0
    4.4753    2.7318    0.0591 C   0  0  0  0  0  0  0  0  0  0  0  0
    4.3870    4.0632    0.7619 C   0  0  0  0  0  0  0  0  0  0  0  0
    3.6512    5.0202   -0.0016 O   0  0  0  0  0  0  0  0  0  0  0  0
    2.2443    4.7870    0.0206 C   0  0  0  0  0  0  0  0  0  0  0  0
    5.1893    2.6024   -1.1372 C   0  0  0  0  0  0  0  0  0  0  0  0
    5.2132    1.3842   -1.8151 C   0  0  0  0  0  0  0  0  0  0  0  0
    4.5018    0.2918   -1.3156 C   0  0  0  0  0  0  0  0  0  0  0  0
    3.5500   -1.7761    1.0484 C   0  0  0  0  0  0  0  0  0  0  0  0
    2.7949   -2.8551    1.5145 C   0  0  0  0  0  0  0  0  0  0  0  0
    1.4027   -2.9325    1.2323 C   0  0  0  0  0  0  0  0  0  0  0  0
    0.7047   -4.0212    1.8132 C   0  0  0  0  0  0  0  0  0  0  0  0
    1.3438   -5.0005    2.5776 C   0  0  0  0  0  0  0  0  0  0  0  0
    2.7086   -4.9192    2.8009 C   0  0  0  0  0  0  0  0  0  0  0  0
    3.4285   -3.8514    2.2745 C   0  0  0  0  0  0  0  0  0  0  0  0
    0.7614   -1.9124    0.4412 C   0  0  0  0  0  0  0  0  0  0  0  0
   -0.6112   -1.9965   -0.0279 C   0  0  0  0  0  0  0  0  0  0  0  0
   -1.5263   -0.9474    0.2360 C   0  0  0  0  0  0  0  0  0  0  0  0
   -1.0894    0.1650    0.9171 O   0  0  0  0  0  0  0  0  0  0  0  0
   -2.8997   -1.0081   -0.0624 C   0  0  0  0  0  0  0  0  0  0  0  0
   -3.8235    0.0777    0.2914 C   0  0  0  0  0  0  0  0  0  0  0  0
   -4.6969   -0.0462    1.3815 C   0  0  0  0  0  0  0  0  0  0  0  0
   -5.5399    1.0066    1.7421 C   0  0  0  0  0  0  0  0  0  0  0  0
   -5.5144    2.2000    1.0215 C   0  0  0  0  0  0  0  0  0  0  0  0
   -4.6584    2.3465   -0.0762 C   0  0  0  0  0  0  0  0  0  0  0  0
   -4.6015    3.6448   -0.8414 C   0  0  0  0  0  0  0  0  0  0  0  0
   -4.2087    4.7356   -0.0062 O   0  0  0  0  0  0  0  0  0  0  0  0
   -2.8056    4.7569    0.2352 C   0  0  0  0  0  0  0  0  0  0  0  0
   -3.8331    1.2737   -0.4421 C   0  0  0  0  0  0  0  0  0  0  0  0
   -3.3799   -2.1471   -0.7061 C   0  0  0  0  0  0  0  0  0  0  0  0
   -2.5237   -3.1875   -1.0755 C   0  0  0  0  0  0  0  0  0  0  0  0
   -1.1383   -3.1204   -0.7630 C   0  0  0  0  0  0  0  0  0  0  0  0
   -0.3344   -4.1778   -1.2601 C   0  0  0  0  0  0  0  0  0  0  0  0
   -0.8671   -5.2625   -1.9621 C   0  0  0  0  0  0  0  0  0  0  0  0
   -2.2285   -5.3214   -2.2105 C   0  0  0  0  0  0  0  0  0  0  0  0
   -3.0498   -4.2865   -1.7748 C   0  0  0  0  0  0  0  0  0  0  0  0
    0.9096    1.1281    2.0773 H   0  0  0  0  0  0  0  0  0  0  0  0
    3.2351    1.7209    1.4951 H   0  0  0  0  0  0  0  0  0  0  0  0
    5.4018    4.4563    0.8931 H   0  0  0  0  0  0  0  0  0  0  0  0
    3.9578    3.9703    1.7669 H   0  0  0  0  0  0  0  0  0  0  0  0
    1.8729    4.7594    1.0494 H   0  0  0  0  0  0  0  0  0  0  0  0
    1.9947    3.8582   -0.4997 H   0  0  0  0  0  0  0  0  0  0  0  0
    1.7557    5.6133   -0.5029 H   0  0  0  0  0  0  0  0  0  0  0  0
    5.7104    3.4615   -1.5549 H   0  0  0  0  0  0  0  0  0  0  0  0
    5.7617    1.2943   -2.7491 H   0  0  0  0  0  0  0  0  0  0  0  0
    4.4956   -0.6390   -1.8789 H   0  0  0  0  0  0  0  0  0  0  0  0
    4.6204   -1.7324    1.2486 H   0  0  0  0  0  0  0  0  0  0  0  0
   -0.3728   -4.1192    1.6892 H   0  0  0  0  0  0  0  0  0  0  0  0
    0.7669   -5.8196    2.9989 H   0  0  0  0  0  0  0  0  0  0  0  0
    3.2124   -5.6757    3.3956 H   0  0  0  0  0  0  0  0  0  0  0  0
    4.4967   -3.7970    2.4777 H   0  0  0  0  0  0  0  0  0  0  0  0
   -4.7110   -0.9619    1.9688 H   0  0  0  0  0  0  0  0  0  0  0  0
   -6.2043    0.9030    2.5959 H   0  0  0  0  0  0  0  0  0  0  0  0
   -6.1534    3.0272    1.3241 H   0  0  0  0  0  0  0  0  0  0  0  0
   -5.6064    3.8657   -1.2193 H   0  0  0  0  0  0  0  0  0  0  0  0
   -3.9448    3.5811   -1.7175 H   0  0  0  0  0  0  0  0  0  0  0  0
   -2.5757    5.6523    0.8193 H   0  0  0  0  0  0  0  0  0  0  0  0
   -2.2515    4.8076   -0.7069 H   0  0  0  0  0  0  0  0  0  0  0  0
   -2.4965    3.8831    0.8154 H   0  0  0  0  0  0  0  0  0  0  0  0
   -3.1672    1.3819   -1.2973 H   0  0  0  0  0  0  0  0  0  0  0  0
   -4.4410   -2.2043   -0.9480 H   0  0  0  0  0  0  0  0  0  0  0  0
    0.7449   -4.1648   -1.1196 H   0  0  0  0  0  0  0  0  0  0  0  0
   -0.2107   -6.0522   -2.3183 H   0  0  0  0  0  0  0  0  0  0  0  0
   -2.6502   -6.1596   -2.7582 H   0  0  0  0  0  0  0  0  0  0  0  0
   -4.1133   -4.3375   -2.0023 H   0  0  0  0  0  0  0  0  0  0  0  0
  1  2  2  0  0  0  0
  2 26  1  0  0  0  0
  2  3  1  0  0  0  0
  3 44  1  0  0  0  0
  4  5  1  0  0  0  0
  4  2  1  0  0  0  0
  5  6  2  0  0  0  0
  5 23  1  0  0  0  0
  6 16  1  0  0  0  0
  7  6  1  0  0  0  0
  7  8  2  0  0  0  0
  8 45  1  0  0  0  0
  9  8  1  0  0  0  0
  9 10  1  0  0  0  0
 10 46  1  0  0  0  0
 10 47  1  0  0  0  0
 11 12  1  0  0  0  0
 11 10  1  0  0  0  0
 12 48  1  0  0  0  0
 13  9  2  0  0  0  0
 14 15  2  0  0  0  0
 14 13  1  0  0  0  0
 15  7  1  0  0  0  0
 16 54  1  0  0  0  0
 16 17  2  0  0  0  0
 17 22  1  0  0  0  0
 18 17  1  0  0  0  0
 18 19  1  0  0  0  0
 19 20  2  0  0  0  0
 20 21  1  0  0  0  0
 20 56  1  0  0  0  0
 21 57  1  0  0  0  0
 22 58  1  0  0  0  0
 22 21  2  0  0  0  0
 23 18  2  0  0  0  0
 24 25  2  0  0  0  0
 24 23  1  0  0  0  0
 25 26  1  0  0  0  0
 27 25  1  0  0  0  0
 27 28  1  0  0  0  0
 28 29  2  0  0  0  0
 29 30  1  0  0  0  0
 29 59  1  0  0  0  0
 30 60  1  0  0  0  0
 31 61  1  0  0  0  0
 31 30  2  0  0  0  0
 32 31  1  0  0  0  0
 33 32  1  0  0  0  0
 33 34  1  0  0  0  0
 34 35  1  0  0  0  0
 35 66  1  0  0  0  0
 35 64  1  0  0  0  0
 36 32  2  0  0  0  0
 36 28  1  0  0  0  0
 37 27  2  0  0  0  0
 38 39  1  0  0  0  0
 38 37  1  0  0  0  0
 39 24  1  0  0  0  0
 40 69  1  0  0  0  0
 40 39  2  0  0  0  0
 41 40  1  0  0  0  0
 42 41  2  0  0  0  0
 42 43  1  0  0  0  0
 43 38  2  0  0  0  0
 49 12  1  0  0  0  0
 50 12  1  0  0  0  0
 51 13  1  0  0  0  0
 52 14  1  0  0  0  0
 53 15  1  0  0  0  0
 55 19  1  0  0  0  0
 62 33  1  0  0  0  0
 63 33  1  0  0  0  0
 65 35  1  0  0  0  0
 67 36  1  0  0  0  0
 68 37  1  0  0  0  0
 70 41  1  0  0  0  0
 71 42  1  0  0  0  0
 72 43  1  0  0  0  0
M  END
$$$$
