O=P1(O)OC2=C(C3=C(OC)C=CC=C3OC)C=C4C(C=CC=C4)=C2C5=C(O1)[C@@]([C@@]6=C(OC)C=CC=C6OC)=CC7=C5C=CC=C7
 OpenBabel09032010373D

 74 80  0  0  0  0  0  0  0  0999 V2000
    0.9016    2.9074    0.2285 O   0  0  0  0  0  0  0  0  0  0  0  0
    0.1946    1.7782   -0.4548 P   0  0  0  0  0  0  0  0  0  0  0  0
   -0.5598    2.2498   -1.7967 O   0  0  0  0  0  0  0  0  0  0  0  0
    1.0976    0.5462   -0.9596 O   0  0  0  0  0  0  0  0  0  0  0  0
    1.4983   -0.3747   -0.0162 C   0  0  0  0  0  0  0  0  0  0  0  0
    2.8643   -0.4073    0.3113 C   0  0  0  0  0  0  0  0  0  0  0  0
    3.8413    0.5247   -0.2880 C   0  0  0  0  0  0  0  0  0  0  0  0
    4.3788    0.2833   -1.5745 C   0  0  0  0  0  0  0  0  0  0  0  0
    3.9645   -0.8700   -2.1970 O   0  0  0  0  0  0  0  0  0  0  0  0
    4.3514   -1.0625   -3.5502 C   0  0  0  0  0  0  0  0  0  0  0  0
    5.2956    1.1846   -2.1271 C   0  0  0  0  0  0  0  0  0  0  0  0
    5.6893    2.3178   -1.4154 C   0  0  0  0  0  0  0  0  0  0  0  0
    5.1722    2.5637   -0.1458 C   0  0  0  0  0  0  0  0  0  0  0  0
    4.2446    1.6824    0.4163 C   0  0  0  0  0  0  0  0  0  0  0  0
    3.7256    1.8554    1.6774 O   0  0  0  0  0  0  0  0  0  0  0  0
    3.5347    3.2068    2.0845 C   0  0  0  0  0  0  0  0  0  0  0  0
    3.2947   -1.3526    1.2442 C   0  0  0  0  0  0  0  0  0  0  0  0
    2.3976   -2.2225    1.8675 C   0  0  0  0  0  0  0  0  0  0  0  0
    1.0176   -2.1810    1.5340 C   0  0  0  0  0  0  0  0  0  0  0  0
    0.1682   -3.0297    2.2898 C   0  0  0  0  0  0  0  0  0  0  0  0
    0.6535   -3.9122    3.2595 C   0  0  0  0  0  0  0  0  0  0  0  0
    2.0120   -3.9653    3.5256 C   0  0  0  0  0  0  0  0  0  0  0  0
    2.8768   -3.1188    2.8385 C   0  0  0  0  0  0  0  0  0  0  0  0
    0.5420   -1.2741    0.5158 C   0  0  0  0  0  0  0  0  0  0  0  0
   -0.8201   -1.2602    0.0231 C   0  0  0  0  0  0  0  0  0  0  0  0
   -1.5703   -0.0581    0.0190 C   0  0  0  0  0  0  0  0  0  0  0  0
   -0.9901    1.1253    0.4217 O   0  0  0  0  0  0  0  0  0  0  0  0
   -2.9349    0.0055   -0.3131 C   0  0  0  0  0  0  0  0  0  0  0  0
   -3.6917    1.2718   -0.2695 C   0  0  0  0  0  0  0  0  0  0  0  0
   -4.2523    1.7341    0.9372 C   0  0  0  0  0  0  0  0  0  0  0  0
   -4.1224    0.9730    2.0736 O   0  0  0  0  0  0  0  0  0  0  0  0
   -3.2852    1.6237    3.0320 C   0  0  0  0  0  0  0  0  0  0  0  0
   -4.9936    2.9160    0.9841 C   0  0  0  0  0  0  0  0  0  0  0  0
   -5.1517    3.6775   -0.1692 C   0  0  0  0  0  0  0  0  0  0  0  0
   -4.5800    3.2558   -1.3715 C   0  0  0  0  0  0  0  0  0  0  0  0
   -3.8575    2.0575   -1.4336 C   0  0  0  0  0  0  0  0  0  0  0  0
   -3.2456    1.5815   -2.5717 O   0  0  0  0  0  0  0  0  0  0  0  0
   -3.5227    2.2632   -3.7910 C   0  0  0  0  0  0  0  0  0  0  0  0
   -3.5751   -1.1698   -0.7067 C   0  0  0  0  0  0  0  0  0  0  0  0
   -2.8785   -2.3753   -0.8110 C   0  0  0  0  0  0  0  0  0  0  0  0
   -1.4994   -2.4330   -0.4744 C   0  0  0  0  0  0  0  0  0  0  0  0
   -0.8527   -3.6737   -0.7091 C   0  0  0  0  0  0  0  0  0  0  0  0
   -1.5325   -4.8023   -1.1761 C   0  0  0  0  0  0  0  0  0  0  0  0
   -2.8891   -4.7272   -1.4461 C   0  0  0  0  0  0  0  0  0  0  0  0
   -3.5553   -3.5181   -1.2710 C   0  0  0  0  0  0  0  0  0  0  0  0
   -1.2180    1.5982   -2.1073 H   0  0  0  0  0  0  0  0  0  0  0  0
    5.4336   -1.2060   -3.6322 H   0  0  0  0  0  0  0  0  0  0  0  0
    4.0109   -0.2364   -4.1832 H   0  0  0  0  0  0  0  0  0  0  0  0
    3.8678   -1.9763   -3.9088 H   0  0  0  0  0  0  0  0  0  0  0  0
    5.7308    1.0271   -3.1078 H   0  0  0  0  0  0  0  0  0  0  0  0
    6.4089    3.0077   -1.8489 H   0  0  0  0  0  0  0  0  0  0  0  0
    5.5142    3.4400    0.3949 H   0  0  0  0  0  0  0  0  0  0  0  0
    3.1614    3.8410    1.2737 H   0  0  0  0  0  0  0  0  0  0  0  0
    4.4675    3.6123    2.4886 H   0  0  0  0  0  0  0  0  0  0  0  0
    2.7910    3.2128    2.8870 H   0  0  0  0  0  0  0  0  0  0  0  0
    4.3514   -1.3802    1.5063 H   0  0  0  0  0  0  0  0  0  0  0  0
   -0.9098   -3.0055    2.1399 H   0  0  0  0  0  0  0  0  0  0  0  0
   -0.0378   -4.5479    3.8059 H   0  0  0  0  0  0  0  0  0  0  0  0
    2.3981   -4.6464    4.2786 H   0  0  0  0  0  0  0  0  0  0  0  0
    3.9378   -3.1523    3.0795 H   0  0  0  0  0  0  0  0  0  0  0  0
   -3.8533    2.3806    3.5822 H   0  0  0  0  0  0  0  0  0  0  0  0
   -2.9473    0.8680    3.7474 H   0  0  0  0  0  0  0  0  0  0  0  0
   -2.3994    2.0751    2.5717 H   0  0  0  0  0  0  0  0  0  0  0  0
   -5.4516    3.2403    1.9138 H   0  0  0  0  0  0  0  0  0  0  0  0
   -5.7185    4.6045   -0.1331 H   0  0  0  0  0  0  0  0  0  0  0  0
   -4.7111    3.8913   -2.2409 H   0  0  0  0  0  0  0  0  0  0  0  0
   -3.0336    1.7105   -4.5988 H   0  0  0  0  0  0  0  0  0  0  0  0
   -4.5971    2.2803   -4.0020 H   0  0  0  0  0  0  0  0  0  0  0  0
   -3.1020    3.2738   -3.7783 H   0  0  0  0  0  0  0  0  0  0  0  0
   -4.6334   -1.1281   -0.9613 H   0  0  0  0  0  0  0  0  0  0  0  0
    0.2179   -3.7780   -0.5394 H   0  0  0  0  0  0  0  0  0  0  0  0
   -0.9928   -5.7328   -1.3299 H   0  0  0  0  0  0  0  0  0  0  0  0
   -3.4258   -5.5998   -1.8079 H   0  0  0  0  0  0  0  0  0  0  0  0
   -4.6160   -3.4707   -1.5114 H   0  0  0  0  0  0  0  0  0  0  0  0
  2  1  2  0  0  0  0
  2 27  1  0  0  0  0
  3  2  1  0  0  0  0
  4  2  1  0  0  0  0
  4  5  1  0  0  0  0
  5  6  2  0  0  0  0
  5 24  1  0  0  0  0
  6 17  1  0  0  0  0
  7  6  1  0  0  0  0
  7 14  2  0  0  0  0
  8  7  1  0  0  0  0
  9  8  1  0  0  0  0
 10  9  1  0  0  0  0
 11  8  2  0  0  0  0
 11 12  1  0  0  0  0
 12 13  2  0  0  0  0
 13 52  1  0  0  0  0
 13 14  1  0  0  0  0
 14 15  1  0  0  0  0
 15 16  1  0  0  0  0
 16 54  1  0  0  0  0
 16 55  1  0  0  0  0
 17 56  1  0  0  0  0
 17 18  2  0  0  0  0
 18 23  1  0  0  0  0
 19 18  1  0  0  0  0
 19 20  1  0  0  0  0
 20 21  2  0  0  0  0
 21 22  1  0  0  0  0
 21 58  1  0  0  0  0
 22 59  1  0  0  0  0
 23 60  1  0  0  0  0
 23 22  2  0  0  0  0
 24 19  2  0  0  0  0
 25 24  1  0  0  0  0
 26 25  1  0  0  0  0
 26 27  1  0  0  0  0
 28 29  1  0  0  0  0
 28 26  2  0  0  0  0
 29 30  2  0  0  0  0
 30 33  1  0  0  0  0
 30 31  1  0  0  0  0
 31 32  1  0  0  0  0
 32 61  1  0  0  0  0
 32 62  1  0  0  0  0
 33 64  1  0  0  0  0
 34 65  1  0  0  0  0
 34 33  2  0  0  0  0
 35 34  1  0  0  0  0
 36 35  2  0  0  0  0
 36 29  1  0  0  0  0
 37 36  1  0  0  0  0
 38 69  1  0  0  0  0
 38 37  1  0  0  0  0
 39 28  1  0  0  0  0
 40 39  2  0  0  0  0
 40 41  1  0  0  0  0
 41 25  2  0  0  0  0
 42 71  1  0  0  0  0
 42 41  1  0  0  0  0
 43 42  2  0  0  0  0
 44 45  2  0  0  0  0
 44 43  1  0  0  0  0
 45 40  1  0  0  0  0
 46  3  1  0  0  0  0
 47 10  1  0  0  0  0
 48 10  1  0  0  0  0
 49 10  1  0  0  0  0
 50 11  1  0  0  0  0
 51 12  1  0  0  0  0
 53 16  1  0  0  0  0
 57 20  1  0  0  0  0
 63 32  1  0  0  0  0
 66 35  1  0  0  0  0
 67 38  1  0  0  0  0
 68 38  1  0  0  0  0
 70 39  1  0  0  0  0
 72 43  1  0  0  0  0
 73 44  1  0  0  0  0
 74 45  1  0  0  0  0
M  END
$$$$
