O=P1(O)OC2=C(CC3=CC(C(F)(F)F)=CC(C(F)(F)F)=C3)C=C4C(CCCC4)=C2C5=C(O1)C(CC6=CC(C(F)(F)F)=CC(C(F)(F)F)=C6)=CC7=C5CCCC7
 OpenBabel09032010373D

 84 89  0  0  0  0  0  0  0  0999 V2000
   -1.5559    2.4234    0.9342 O   0  0  0  0  0  0  0  0  0  0  0  0
   -0.8943    1.4742   -0.0290 P   0  0  0  0  0  0  0  0  0  0  0  0
   -1.3524    1.7888   -1.5513 O   0  0  0  0  0  0  0  0  0  0  0  0
    0.7102    1.5524   -0.1574 O   0  0  0  0  0  0  0  0  0  0  0  0
    1.5690    0.5780    0.2988 C   0  0  0  0  0  0  0  0  0  0  0  0
    2.6881    1.0258    1.0413 C   0  0  0  0  0  0  0  0  0  0  0  0
    2.9542    2.4886    1.3646 C   0  0  0  0  0  0  0  0  0  0  0  0
    2.0785    2.9920    2.4867 C   0  0  0  0  0  0  0  0  0  0  0  0
    2.3384    2.6958    3.8298 C   0  0  0  0  0  0  0  0  0  0  0  0
    1.3838    2.9741    4.8261 C   0  0  0  0  0  0  0  0  0  0  0  0
    1.6607    2.6083    6.2635 C   0  0  0  0  0  0  0  0  0  0  0  0
    2.9651    2.7881    6.6134 F   0  0  0  0  0  0  0  0  0  0  0  0
    0.9332    3.3396    7.1527 F   0  0  0  0  0  0  0  0  0  0  0  0
    1.3792    1.3037    6.5310 F   0  0  0  0  0  0  0  0  0  0  0  0
    0.1324    3.4912    4.4493 C   0  0  0  0  0  0  0  0  0  0  0  0
   -0.1352    3.7767    3.1065 C   0  0  0  0  0  0  0  0  0  0  0  0
   -1.5295    4.0698    2.5899 C   0  0  0  0  0  0  0  0  0  0  0  0
   -1.7271    3.5121    1.3469 F   0  0  0  0  0  0  0  0  0  0  0  0
   -2.5062    3.5369    3.3708 F   0  0  0  0  0  0  0  0  0  0  0  0
   -1.7917    5.3994    2.4788 F   0  0  0  0  0  0  0  0  0  0  0  0
    0.8830    3.6238    2.1590 C   0  0  0  0  0  0  0  0  0  0  0  0
    3.5921    0.0808    1.5320 C   0  0  0  0  0  0  0  0  0  0  0  0
    3.3930   -1.2845    1.3264 C   0  0  0  0  0  0  0  0  0  0  0  0
    2.3071   -1.7237    0.5313 C   0  0  0  0  0  0  0  0  0  0  0  0
    2.0079   -3.2219    0.5005 C   0  0  0  0  0  0  0  0  0  0  0  0
    3.2082   -4.1119    0.8121 C   0  0  0  0  0  0  0  0  0  0  0  0
    3.8749   -3.6563    2.0967 C   0  0  0  0  0  0  0  0  0  0  0  0
    4.3995   -2.2378    1.9298 C   0  0  0  0  0  0  0  0  0  0  0  0
    1.4004   -0.7879   -0.0720 C   0  0  0  0  0  0  0  0  0  0  0  0
    0.3850   -1.2269   -0.9999 C   0  0  0  0  0  0  0  0  0  0  0  0
   -0.9831   -0.9860   -0.7519 C   0  0  0  0  0  0  0  0  0  0  0  0
   -1.3159   -0.0681    0.2097 O   0  0  0  0  0  0  0  0  0  0  0  0
   -2.0352   -1.6069   -1.4641 C   0  0  0  0  0  0  0  0  0  0  0  0
   -3.4990   -1.4673   -1.0707 C   0  0  0  0  0  0  0  0  0  0  0  0
   -4.0781   -0.1007   -1.3543 C   0  0  0  0  0  0  0  0  0  0  0  0
   -4.1491    0.8380   -0.3203 C   0  0  0  0  0  0  0  0  0  0  0  0
   -4.3715    2.1952   -0.5919 C   0  0  0  0  0  0  0  0  0  0  0  0
   -4.0344    3.1959    0.4972 C   0  0  0  0  0  0  0  0  0  0  0  0
   -4.7878    3.0143    1.6177 F   0  0  0  0  0  0  0  0  0  0  0  0
   -4.2257    4.4914    0.1212 F   0  0  0  0  0  0  0  0  0  0  0  0
   -2.7269    3.0886    0.8891 F   0  0  0  0  0  0  0  0  0  0  0  0
   -4.6975    2.5846   -1.8996 C   0  0  0  0  0  0  0  0  0  0  0  0
   -4.7129    1.6400   -2.9428 C   0  0  0  0  0  0  0  0  0  0  0  0
   -4.8514    2.1019   -4.3768 C   0  0  0  0  0  0  0  0  0  0  0  0
   -5.7690    3.0893   -4.5476 F   0  0  0  0  0  0  0  0  0  0  0  0
   -5.1885    1.1075   -5.2404 F   0  0  0  0  0  0  0  0  0  0  0  0
   -3.6588    2.5978   -4.8148 F   0  0  0  0  0  0  0  0  0  0  0  0
   -4.3908    0.3008   -2.6595 C   0  0  0  0  0  0  0  0  0  0  0  0
   -1.7066   -2.3879   -2.5732 C   0  0  0  0  0  0  0  0  0  0  0  0
   -0.3742   -2.5451   -2.9528 C   0  0  0  0  0  0  0  0  0  0  0  0
    0.6643   -1.9695   -2.1832 C   0  0  0  0  0  0  0  0  0  0  0  0
    2.0573   -2.0621   -2.7860 C   0  0  0  0  0  0  0  0  0  0  0  0
    2.3871   -3.4498   -3.3451 C   0  0  0  0  0  0  0  0  0  0  0  0
    1.1938   -4.2028   -3.9395 C   0  0  0  0  0  0  0  0  0  0  0  0
   -0.0159   -3.3120   -4.2026 C   0  0  0  0  0  0  0  0  0  0  0  0
   -0.9794    1.1673   -2.2049 H   0  0  0  0  0  0  0  0  0  0  0  0
    4.0067    2.6383    1.6395 H   0  0  0  0  0  0  0  0  0  0  0  0
    2.8147    3.0917    0.4579 H   0  0  0  0  0  0  0  0  0  0  0  0
    3.2705    2.2022    4.1033 H   0  0  0  0  0  0  0  0  0  0  0  0
   -0.6538    3.6160    5.1948 H   0  0  0  0  0  0  0  0  0  0  0  0
    0.6699    3.8652    1.1170 H   0  0  0  0  0  0  0  0  0  0  0  0
    4.4513    0.4094    2.1158 H   0  0  0  0  0  0  0  0  0  0  0  0
    1.6135   -3.5514   -0.4597 H   0  0  0  0  0  0  0  0  0  0  0  0
    1.2228   -3.4088    1.2453 H   0  0  0  0  0  0  0  0  0  0  0  0
    3.9276   -4.0764   -0.0158 H   0  0  0  0  0  0  0  0  0  0  0  0
    2.8784   -5.1524    0.9092 H   0  0  0  0  0  0  0  0  0  0  0  0
    3.1539   -3.6959    2.9230 H   0  0  0  0  0  0  0  0  0  0  0  0
    4.7000   -4.3286    2.3565 H   0  0  0  0  0  0  0  0  0  0  0  0
    5.2829   -2.2500    1.2786 H   0  0  0  0  0  0  0  0  0  0  0  0
    4.7220   -1.8706    2.9118 H   0  0  0  0  0  0  0  0  0  0  0  0
   -3.6007   -1.7151   -0.0058 H   0  0  0  0  0  0  0  0  0  0  0  0
   -4.1072   -2.2184   -1.5920 H   0  0  0  0  0  0  0  0  0  0  0  0
   -3.8744    0.5473    0.6958 H   0  0  0  0  0  0  0  0  0  0  0  0
   -4.8569    3.6401   -2.1306 H   0  0  0  0  0  0  0  0  0  0  0  0
   -4.3138   -0.4164   -3.4765 H   0  0  0  0  0  0  0  0  0  0  0  0
   -2.4923   -2.8609   -3.1597 H   0  0  0  0  0  0  0  0  0  0  0  0
    2.1009   -1.3277   -3.6019 H   0  0  0  0  0  0  0  0  0  0  0  0
    2.8463   -1.7712   -2.0881 H   0  0  0  0  0  0  0  0  0  0  0  0
    3.1729   -3.3441   -4.1033 H   0  0  0  0  0  0  0  0  0  0  0  0
    2.8245   -4.0696   -2.5523 H   0  0  0  0  0  0  0  0  0  0  0  0
    0.9025   -4.9963   -3.2378 H   0  0  0  0  0  0  0  0  0  0  0  0
    1.4959   -4.7099   -4.8632 H   0  0  0  0  0  0  0  0  0  0  0  0
    0.1948   -2.6011   -5.0104 H   0  0  0  0  0  0  0  0  0  0  0  0
   -0.8554   -3.9379   -4.5269 H   0  0  0  0  0  0  0  0  0  0  0  0
  1 18  1  0  0  0  0
  2 32  1  0  0  0  0
  3  2  1  0  0  0  0
  4  2  1  0  0  0  0
  4  5  1  0  0  0  0
  5  6  1  0  0  0  0
  6  7  1  0  0  0  0
  6 22  2  0  0  0  0
  7 57  1  0  0  0  0
  7  8  1  0  0  0  0
  8  9  1  0  0  0  0
  9 59  1  0  0  0  0
  9 10  2  0  0  0  0
 10 11  1  0  0  0  0
 11 14  1  0  0  0  0
 11 12  1  0  0  0  0
 11 13  1  0  0  0  0
 15 10  1  0  0  0  0
 15 60  1  0  0  0  0
 16 15  2  0  0  0  0
 17 16  1  0  0  0  0
 17 19  1  0  0  0  0
 20 17  1  0  0  0  0
 21  8  2  0  0  0  0
 21 16  1  0  0  0  0
 22 62  1  0  0  0  0
 23 22  1  0  0  0  0
 23 28  1  0  0  0  0
 24 23  2  0  0  0  0
 25 24  1  0  0  0  0
 25 26  1  0  0  0  0
 25 64  1  0  0  0  0
 26 66  1  0  0  0  0
 26 27  1  0  0  0  0
 27 68  1  0  0  0  0
 27 67  1  0  0  0  0
 28 27  1  0  0  0  0
 28 70  1  0  0  0  0
 29  5  2  0  0  0  0
 29 24  1  0  0  0  0
 30 31  1  0  0  0  0
 30 29  1  0  0  0  0
 31 32  1  0  0  0  0
 33 34  1  0  0  0  0
 33 31  2  0  0  0  0
 34 71  1  0  0  0  0
 35 34  1  0  0  0  0
 35 36  2  0  0  0  0
 36 73  1  0  0  0  0
 37 36  1  0  0  0  0
 37 38  1  0  0  0  0
 38 39  1  0  0  0  0
 40 38  1  0  0  0  0
 41  1  1  0  0  0  0
 42 37  2  0  0  0  0
 43 48  2  0  0  0  0
 43 42  1  0  0  0  0
 44 43  1  0  0  0  0
 45 44  1  0  0  0  0
 46 44  1  0  0  0  0
 47 44  1  0  0  0  0
 48 35  1  0  0  0  0
 49 33  1  0  0  0  0
 50 49  2  0  0  0  0
 50 51  1  0  0  0  0
 51 30  2  0  0  0  0
 52 51  1  0  0  0  0
 52 78  1  0  0  0  0
 53 52  1  0  0  0  0
 53 80  1  0  0  0  0
 54 53  1  0  0  0  0
 54 81  1  0  0  0  0
 55 54  1  0  0  0  0
 55 50  1  0  0  0  0
 56  3  1  0  0  0  0
 58  7  1  0  0  0  0
 61 21  1  0  0  0  0
 63 25  1  0  0  0  0
 65 26  1  0  0  0  0
 69 28  1  0  0  0  0
 72 34  1  0  0  0  0
 74 42  1  0  0  0  0
 75 48  1  0  0  0  0
 76 49  1  0  0  0  0
 77 52  1  0  0  0  0
 79 53  1  0  0  0  0
 82 54  1  0  0  0  0
 83 55  1  0  0  0  0
 84 55  1  0  0  0  0
M  RAD  2  17   2  38   2
M  END
$$$$
