O=P1(O)OC2=C(C3=C(OC)C=CC=C3OC)C=C4C(C=CC=C4)=C2C5=C(O1)[C@@]([C@@]6=C(OC)C=CC=C6OC)=CC7=C5C=CC=C7
 OpenBabel09032010373D

 74 80  0  0  0  0  0  0  0  0999 V2000
    0.9921    3.0910   -0.5302 O   0  0  0  0  0  0  0  0  0  0  0  0
    0.4034    1.7690   -0.9102 P   0  0  0  0  0  0  0  0  0  0  0  0
   -0.2835    1.8165   -2.3646 O   0  0  0  0  0  0  0  0  0  0  0  0
    1.4096    0.5282   -1.0849 O   0  0  0  0  0  0  0  0  0  0  0  0
    1.6379   -0.3391   -0.0437 C   0  0  0  0  0  0  0  0  0  0  0  0
    2.9587   -0.4071    0.4331 C   0  0  0  0  0  0  0  0  0  0  0  0
    4.0261    0.4683   -0.0866 C   0  0  0  0  0  0  0  0  0  0  0  0
    4.8656    0.0405   -1.1337 C   0  0  0  0  0  0  0  0  0  0  0  0
    4.7217   -1.2257   -1.6498 O   0  0  0  0  0  0  0  0  0  0  0  0
    4.1241   -1.1712   -2.9456 C   0  0  0  0  0  0  0  0  0  0  0  0
    5.8974    0.8498   -1.6137 C   0  0  0  0  0  0  0  0  0  0  0  0
    6.0875    2.1179   -1.0747 C   0  0  0  0  0  0  0  0  0  0  0  0
    5.2554    2.5735   -0.0504 C   0  0  0  0  0  0  0  0  0  0  0  0
    4.2259    1.7620    0.4445 C   0  0  0  0  0  0  0  0  0  0  0  0
    3.3922    2.1326    1.4723 O   0  0  0  0  0  0  0  0  0  0  0  0
    3.2687    3.5272    1.7249 C   0  0  0  0  0  0  0  0  0  0  0  0
    3.2557   -1.3383    1.4284 C   0  0  0  0  0  0  0  0  0  0  0  0
    2.2683   -2.1629    1.9690 C   0  0  0  0  0  0  0  0  0  0  0  0
    0.9340   -2.0882    1.4865 C   0  0  0  0  0  0  0  0  0  0  0  0
   -0.0165   -2.8909    2.1706 C   0  0  0  0  0  0  0  0  0  0  0  0
    0.3338   -3.7605    3.2080 C   0  0  0  0  0  0  0  0  0  0  0  0
    1.6535   -3.8472    3.6186 C   0  0  0  0  0  0  0  0  0  0  0  0
    2.6127   -3.0465    3.0068 C   0  0  0  0  0  0  0  0  0  0  0  0
    0.5985   -1.1947    0.4009 C   0  0  0  0  0  0  0  0  0  0  0  0
   -0.7180   -1.1486   -0.2070 C   0  0  0  0  0  0  0  0  0  0  0  0
   -1.4256    0.0741   -0.2646 C   0  0  0  0  0  0  0  0  0  0  0  0
   -0.7828    1.2465    0.0525 O   0  0  0  0  0  0  0  0  0  0  0  0
   -2.7990    0.1678   -0.5572 C   0  0  0  0  0  0  0  0  0  0  0  0
   -3.5635    1.4189   -0.3703 C   0  0  0  0  0  0  0  0  0  0  0  0
   -3.5893    2.4481   -1.3285 C   0  0  0  0  0  0  0  0  0  0  0  0
   -2.8512    2.3544   -2.4828 O   0  0  0  0  0  0  0  0  0  0  0  0
   -3.6717    1.8828   -3.5550 C   0  0  0  0  0  0  0  0  0  0  0  0
   -4.2973    3.6368   -1.1118 C   0  0  0  0  0  0  0  0  0  0  0  0
   -5.0409    3.8040    0.0531 C   0  0  0  0  0  0  0  0  0  0  0  0
   -5.0561    2.7943    1.0106 C   0  0  0  0  0  0  0  0  0  0  0  0
   -4.3087    1.6285    0.8084 C   0  0  0  0  0  0  0  0  0  0  0  0
   -4.3695    0.6438    1.7668 O   0  0  0  0  0  0  0  0  0  0  0  0
   -3.5003    0.9584    2.8563 C   0  0  0  0  0  0  0  0  0  0  0  0
   -3.4632   -0.9966   -0.9477 C   0  0  0  0  0  0  0  0  0  0  0  0
   -2.7891   -2.2155   -1.0625 C   0  0  0  0  0  0  0  0  0  0  0  0
   -1.4172   -2.3051   -0.7059 C   0  0  0  0  0  0  0  0  0  0  0  0
   -0.7943   -3.5624   -0.9065 C   0  0  0  0  0  0  0  0  0  0  0  0
   -1.4918   -4.6782   -1.3769 C   0  0  0  0  0  0  0  0  0  0  0  0
   -2.8407   -4.5723   -1.6773 C   0  0  0  0  0  0  0  0  0  0  0  0
   -3.4834   -3.3469   -1.5244 C   0  0  0  0  0  0  0  0  0  0  0  0
   -1.0447    2.4312   -2.3763 H   0  0  0  0  0  0  0  0  0  0  0  0
    4.8463   -0.8227   -3.6910 H   0  0  0  0  0  0  0  0  0  0  0  0
    3.8225   -2.1873   -3.2170 H   0  0  0  0  0  0  0  0  0  0  0  0
    3.2299   -0.5384   -2.9584 H   0  0  0  0  0  0  0  0  0  0  0  0
    6.5565    0.4874   -2.3966 H   0  0  0  0  0  0  0  0  0  0  0  0
    6.8902    2.7507   -1.4439 H   0  0  0  0  0  0  0  0  0  0  0  0
    5.4419    3.5615    0.3575 H   0  0  0  0  0  0  0  0  0  0  0  0
    3.1103    4.1011    0.8061 H   0  0  0  0  0  0  0  0  0  0  0  0
    2.3947    3.6745    2.3666 H   0  0  0  0  0  0  0  0  0  0  0  0
    4.1460    3.8955    2.2661 H   0  0  0  0  0  0  0  0  0  0  0  0
    4.2784   -1.3957    1.7985 H   0  0  0  0  0  0  0  0  0  0  0  0
   -1.0718   -2.8404    1.9096 H   0  0  0  0  0  0  0  0  0  0  0  0
   -0.4319   -4.3606    3.6921 H   0  0  0  0  0  0  0  0  0  0  0  0
    1.9357   -4.5199    4.4235 H   0  0  0  0  0  0  0  0  0  0  0  0
    3.6410   -3.1068    3.3590 H   0  0  0  0  0  0  0  0  0  0  0  0
   -4.1552    0.9318   -3.3075 H   0  0  0  0  0  0  0  0  0  0  0  0
   -4.4230    2.6310   -3.8292 H   0  0  0  0  0  0  0  0  0  0  0  0
   -3.0248    1.7184   -4.4219 H   0  0  0  0  0  0  0  0  0  0  0  0
   -4.2681    4.4311   -1.8529 H   0  0  0  0  0  0  0  0  0  0  0  0
   -5.6042    4.7190    0.2157 H   0  0  0  0  0  0  0  0  0  0  0  0
   -5.6442    2.9125    1.9162 H   0  0  0  0  0  0  0  0  0  0  0  0
   -2.4866    1.1947    2.5146 H   0  0  0  0  0  0  0  0  0  0  0  0
   -3.9038    1.7864    3.4485 H   0  0  0  0  0  0  0  0  0  0  0  0
   -3.4423    0.0771    3.5021 H   0  0  0  0  0  0  0  0  0  0  0  0
   -4.5282   -0.9428   -1.1692 H   0  0  0  0  0  0  0  0  0  0  0  0
    0.2687   -3.6875   -0.7052 H   0  0  0  0  0  0  0  0  0  0  0  0
   -0.9728   -5.6239   -1.5082 H   0  0  0  0  0  0  0  0  0  0  0  0
   -3.3905   -5.4360   -2.0409 H   0  0  0  0  0  0  0  0  0  0  0  0
   -4.5394   -3.2792   -1.7795 H   0  0  0  0  0  0  0  0  0  0  0  0
  2  1  2  0  0  0  0
  2 27  1  0  0  0  0
  3  2  1  0  0  0  0
  4  2  1  0  0  0  0
  4  5  1  0  0  0  0
  5 24  2  0  0  0  0
  5  6  1  0  0  0  0
  6 17  2  0  0  0  0
  7  6  1  0  0  0  0
  7 14  2  0  0  0  0
  8  7  1  0  0  0  0
  9  8  1  0  0  0  0
 10  9  1  0  0  0  0
 11  8  2  0  0  0  0
 11 12  1  0  0  0  0
 12 13  2  0  0  0  0
 13 52  1  0  0  0  0
 13 14  1  0  0  0  0
 14 15  1  0  0  0  0
 15 16  1  0  0  0  0
 16 55  1  0  0  0  0
 16 54  1  0  0  0  0
 17 56  1  0  0  0  0
 17 18  1  0  0  0  0
 18 23  1  0  0  0  0
 19 18  2  0  0  0  0
 19 20  1  0  0  0  0
 20 21  2  0  0  0  0
 21 22  1  0  0  0  0
 21 58  1  0  0  0  0
 22 59  1  0  0  0  0
 23 60  1  0  0  0  0
 23 22  2  0  0  0  0
 24 19  1  0  0  0  0
 25 24  1  0  0  0  0
 26 25  1  0  0  0  0
 26 27  1  0  0  0  0
 28 29  1  0  0  0  0
 28 26  2  0  0  0  0
 29 36  2  0  0  0  0
 30 33  2  0  0  0  0
 30 29  1  0  0  0  0
 31 30  1  0  0  0  0
 32 61  1  0  0  0  0
 32 31  1  0  0  0  0
 33 34  1  0  0  0  0
 34 65  1  0  0  0  0
 34 35  2  0  0  0  0
 35 66  1  0  0  0  0
 36 35  1  0  0  0  0
 36 37  1  0  0  0  0
 37 38  1  0  0  0  0
 38 68  1  0  0  0  0
 38 69  1  0  0  0  0
 39 28  1  0  0  0  0
 40 39  2  0  0  0  0
 40 41  1  0  0  0  0
 41 25  2  0  0  0  0
 42 41  1  0  0  0  0
 42 71  1  0  0  0  0
 43 42  2  0  0  0  0
 44 45  2  0  0  0  0
 44 43  1  0  0  0  0
 45 40  1  0  0  0  0
 46  3  1  0  0  0  0
 47 10  1  0  0  0  0
 48 10  1  0  0  0  0
 49 10  1  0  0  0  0
 50 11  1  0  0  0  0
 51 12  1  0  0  0  0
 53 16  1  0  0  0  0
 57 20  1  0  0  0  0
 62 32  1  0  0  0  0
 63 32  1  0  0  0  0
 64 33  1  0  0  0  0
 67 38  1  0  0  0  0
 70 39  1  0  0  0  0
 72 43  1  0  0  0  0
 73 44  1  0  0  0  0
 74 45  1  0  0  0  0
M  END
$$$$
