O=P1(O)OC2=C(C3=C(OC(F)(F)F)C=CC=C3)C=C4C(C=CC=C4)=C2C5=C(O1)C(C6=CC=CC=C6OC(F)(F)F)=CC7=C5C=CC=C7
 OpenBabel09032010383D

 66 72  0  0  0  0  0  0  0  0999 V2000
   -0.9762    2.3545    2.4668 O   0  0  0  0  0  0  0  0  0  0  0  0
   -0.1757    1.2569    1.8381 P   0  0  0  0  0  0  0  0  0  0  0  0
    0.7950    0.4973    2.8701 O   0  0  0  0  0  0  0  0  0  0  0  0
    0.8250    1.7428    0.6719 O   0  0  0  0  0  0  0  0  0  0  0  0
    1.3253    0.8328   -0.2357 C   0  0  0  0  0  0  0  0  0  0  0  0
    2.7197    0.6537   -0.2264 C   0  0  0  0  0  0  0  0  0  0  0  0
    3.5912    1.3419    0.7385 C   0  0  0  0  0  0  0  0  0  0  0  0
    4.0619    0.7030    1.9015 C   0  0  0  0  0  0  0  0  0  0  0  0
    3.6525   -0.5817    2.1602 O   0  0  0  0  0  0  0  0  0  0  0  0
    4.7432   -1.5006    2.1162 C   0  0  0  0  0  0  0  0  0  0  0  0
    5.4965   -1.3257    1.0094 F   0  0  0  0  0  0  0  0  0  0  0  0
    4.2374   -2.7534    2.0861 F   0  0  0  0  0  0  0  0  0  0  0  0
    5.5178   -1.3869    3.2148 F   0  0  0  0  0  0  0  0  0  0  0  0
    4.8492    1.3925    2.8284 C   0  0  0  0  0  0  0  0  0  0  0  0
    5.2186    2.7135    2.5798 C   0  0  0  0  0  0  0  0  0  0  0  0
    4.7877    3.3512    1.4191 C   0  0  0  0  0  0  0  0  0  0  0  0
    3.9758    2.6725    0.5083 C   0  0  0  0  0  0  0  0  0  0  0  0
    3.2787   -0.2111   -1.1665 C   0  0  0  0  0  0  0  0  0  0  0  0
    2.4841   -0.9131   -2.0742 C   0  0  0  0  0  0  0  0  0  0  0  0
    1.0740   -0.7402   -2.0719 C   0  0  0  0  0  0  0  0  0  0  0  0
    0.3457   -1.5764   -2.9577 C   0  0  0  0  0  0  0  0  0  0  0  0
    0.9676   -2.4653   -3.8395 C   0  0  0  0  0  0  0  0  0  0  0  0
    2.3487   -2.5701   -3.8534 C   0  0  0  0  0  0  0  0  0  0  0  0
    3.1009   -1.8044   -2.9686 C   0  0  0  0  0  0  0  0  0  0  0  0
    0.4579    0.2004   -1.1655 C   0  0  0  0  0  0  0  0  0  0  0  0
   -0.9616    0.4903   -1.1667 C   0  0  0  0  0  0  0  0  0  0  0  0
   -1.7017    0.3397    0.0282 C   0  0  0  0  0  0  0  0  0  0  0  0
   -1.0281    0.0501    1.1937 O   0  0  0  0  0  0  0  0  0  0  0  0
   -3.1015    0.4292    0.1043 C   0  0  0  0  0  0  0  0  0  0  0  0
   -3.8354    0.1793    1.3572 C   0  0  0  0  0  0  0  0  0  0  0  0
   -4.4338    1.2497    2.0424 C   0  0  0  0  0  0  0  0  0  0  0  0
   -5.1401    1.0374    3.2278 C   0  0  0  0  0  0  0  0  0  0  0  0
   -5.2686   -0.2502    3.7421 C   0  0  0  0  0  0  0  0  0  0  0  0
   -4.6810   -1.3281    3.0810 C   0  0  0  0  0  0  0  0  0  0  0  0
   -3.9488   -1.1131    1.9085 C   0  0  0  0  0  0  0  0  0  0  0  0
   -3.3906   -2.1567    1.2168 O   0  0  0  0  0  0  0  0  0  0  0  0
   -2.4684   -2.9148    1.9879 C   0  0  0  0  0  0  0  0  0  0  0  0
   -1.6534   -3.5891    1.1445 F   0  0  0  0  0  0  0  0  0  0  0  0
   -1.6964   -2.1419    2.7819 F   0  0  0  0  0  0  0  0  0  0  0  0
   -3.1210   -3.8214    2.7481 F   0  0  0  0  0  0  0  0  0  0  0  0
   -3.7974    0.7561   -1.0604 C   0  0  0  0  0  0  0  0  0  0  0  0
   -3.1277    1.0104   -2.2615 C   0  0  0  0  0  0  0  0  0  0  0  0
   -1.7123    0.8985   -2.3283 C   0  0  0  0  0  0  0  0  0  0  0  0
   -1.1105    1.2556   -3.5613 C   0  0  0  0  0  0  0  0  0  0  0  0
   -1.8584    1.6388   -4.6779 C   0  0  0  0  0  0  0  0  0  0  0  0
   -3.2407    1.6954   -4.5962 C   0  0  0  0  0  0  0  0  0  0  0  0
   -3.8698    1.3886   -3.3931 C   0  0  0  0  0  0  0  0  0  0  0  0
    1.3570   -0.1716    2.4407 H   0  0  0  0  0  0  0  0  0  0  0  0
    5.1662    0.9216    3.7556 H   0  0  0  0  0  0  0  0  0  0  0  0
    5.8320    3.2512    3.2989 H   0  0  0  0  0  0  0  0  0  0  0  0
    5.0677    4.3843    1.2283 H   0  0  0  0  0  0  0  0  0  0  0  0
    3.6316    3.1941   -0.3834 H   0  0  0  0  0  0  0  0  0  0  0  0
    4.3600   -0.3495   -1.1763 H   0  0  0  0  0  0  0  0  0  0  0  0
   -0.7427   -1.5571   -2.9685 H   0  0  0  0  0  0  0  0  0  0  0  0
    0.3671   -3.0726   -4.5123 H   0  0  0  0  0  0  0  0  0  0  0  0
    2.8401   -3.2577   -4.5362 H   0  0  0  0  0  0  0  0  0  0  0  0
    4.1834   -1.9209   -2.9753 H   0  0  0  0  0  0  0  0  0  0  0  0
   -4.3347    2.2652    1.6620 H   0  0  0  0  0  0  0  0  0  0  0  0
   -5.5874    1.8806    3.7479 H   0  0  0  0  0  0  0  0  0  0  0  0
   -5.8291   -0.4142    4.6591 H   0  0  0  0  0  0  0  0  0  0  0  0
   -4.8164   -2.3273    3.4858 H   0  0  0  0  0  0  0  0  0  0  0  0
   -4.8840    0.8285   -1.0199 H   0  0  0  0  0  0  0  0  0  0  0  0
   -0.0271    1.2525   -3.6678 H   0  0  0  0  0  0  0  0  0  0  0  0
   -1.3548    1.8978   -5.6056 H   0  0  0  0  0  0  0  0  0  0  0  0
   -3.8294    1.9933   -5.4594 H   0  0  0  0  0  0  0  0  0  0  0  0
   -4.9548    1.4609   -3.3424 H   0  0  0  0  0  0  0  0  0  0  0  0
  2  1  2  0  0  0  0
  2  3  1  0  0  0  0
  4  2  1  0  0  0  0
  5  6  1  0  0  0  0
  5  4  1  0  0  0  0
  6  7  1  0  0  0  0
  7  8  1  0  0  0  0
  8  9  1  0  0  0  0
  8 14  2  0  0  0  0
 10  9  1  0  0  0  0
 10 13  1  0  0  0  0
 11 10  1  0  0  0  0
 12 10  1  0  0  0  0
 14 49  1  0  0  0  0
 15 14  1  0  0  0  0
 15 50  1  0  0  0  0
 16 15  2  0  0  0  0
 17  7  2  0  0  0  0
 17 16  1  0  0  0  0
 18  6  2  0  0  0  0
 19 20  1  0  0  0  0
 19 18  1  0  0  0  0
 20 25  1  0  0  0  0
 21 20  2  0  0  0  0
 22 21  1  0  0  0  0
 23 22  2  0  0  0  0
 23 24  1  0  0  0  0
 24 19  2  0  0  0  0
 25  5  2  0  0  0  0
 26 25  1  0  0  0  0
 26 27  2  0  0  0  0
 27 29  1  0  0  0  0
 27 28  1  0  0  0  0
 28  2  1  0  0  0  0
 29 30  1  0  0  0  0
 30 35  2  0  0  0  0
 30 31  1  0  0  0  0
 31 32  2  0  0  0  0
 32 33  1  0  0  0  0
 32 59  1  0  0  0  0
 33 60  1  0  0  0  0
 34 61  1  0  0  0  0
 34 33  2  0  0  0  0
 35 34  1  0  0  0  0
 36 35  1  0  0  0  0
 36 37  1  0  0  0  0
 37 40  1  0  0  0  0
 37 39  1  0  0  0  0
 38 37  1  0  0  0  0
 41 62  1  0  0  0  0
 41 29  2  0  0  0  0
 42 41  1  0  0  0  0
 43 42  1  0  0  0  0
 43 26  1  0  0  0  0
 44 43  2  0  0  0  0
 45 46  2  0  0  0  0
 45 44  1  0  0  0  0
 46 47  1  0  0  0  0
 47 66  1  0  0  0  0
 47 42  2  0  0  0  0
 48  3  1  0  0  0  0
 51 16  1  0  0  0  0
 52 17  1  0  0  0  0
 53 18  1  0  0  0  0
 54 21  1  0  0  0  0
 55 22  1  0  0  0  0
 56 23  1  0  0  0  0
 57 24  1  0  0  0  0
 58 31  1  0  0  0  0
 63 44  1  0  0  0  0
 64 45  1  0  0  0  0
 65 46  1  0  0  0  0
M  END
$$$$
