O=P1(O)OC2=C([Si](C3=CC=CC=C3)(C)C4=CC=CC=C4)C=C5C(C=CC=C5)=C2C6=C(O1)C([Si](C7=CC=CC=C7)(C8=CC=CC=C8)C)=CC9=C6C=CC=C9
 OpenBabel09032010383D

 90 98  0  0  0  0  0  0  0  0999 V2000
   -0.0346   -2.0151    2.4893 O   0  0  0  0  0  0  0  0  0  0  0  0
    0.3434   -1.4436    1.1582 P   0  0  0  0  0  0  0  0  0  0  0  0
    1.1906   -2.4876    0.2827 O   0  0  0  0  0  0  0  0  0  0  0  0
    1.2845   -0.1362    1.2438 O   0  0  0  0  0  0  0  0  0  0  0  0
    1.6153    0.5503    0.1024 C   0  0  0  0  0  0  0  0  0  0  0  0
    2.9880    0.6563   -0.2144 C   0  0  0  0  0  0  0  0  0  0  0  0
    4.3536    0.0686    0.9737 Si  0  0  0  0  0  0  0  0  0  0  0  0
    4.3796   -1.8083    0.8114 C   0  0  0  0  0  0  0  0  0  0  0  0
    4.3127   -2.4354   -0.4481 C   0  0  0  0  0  0  0  0  0  0  0  0
    4.3145   -3.8279   -0.5574 C   0  0  0  0  0  0  0  0  0  0  0  0
    4.3789   -4.6178    0.5866 C   0  0  0  0  0  0  0  0  0  0  0  0
    4.4537   -4.0194    1.8409 C   0  0  0  0  0  0  0  0  0  0  0  0
    4.4559   -2.6270    1.9544 C   0  0  0  0  0  0  0  0  0  0  0  0
    4.0552    0.6527    2.7185 C   0  0  0  0  0  0  0  0  0  0  0  0
    6.0054    0.7311    0.3389 C   0  0  0  0  0  0  0  0  0  0  0  0
    7.0259   -0.1107   -0.1389 C   0  0  0  0  0  0  0  0  0  0  0  0
    8.2408    0.4143   -0.5906 C   0  0  0  0  0  0  0  0  0  0  0  0
    8.4615    1.7881   -0.5709 C   0  0  0  0  0  0  0  0  0  0  0  0
    7.4701    2.6402   -0.0947 C   0  0  0  0  0  0  0  0  0  0  0  0
    6.2556    2.1189    0.3595 C   0  0  0  0  0  0  0  0  0  0  0  0
    3.3179    1.2617   -1.4341 C   0  0  0  0  0  0  0  0  0  0  0  0
    2.3372    1.7680   -2.2935 C   0  0  0  0  0  0  0  0  0  0  0  0
    0.9707    1.7283   -1.9170 C   0  0  0  0  0  0  0  0  0  0  0  0
    0.0407    2.2171   -2.8704 C   0  0  0  0  0  0  0  0  0  0  0  0
    0.4352    2.7558   -4.0978 C   0  0  0  0  0  0  0  0  0  0  0  0
    1.7805    2.8151   -4.4229 C   0  0  0  0  0  0  0  0  0  0  0  0
    2.7238    2.3199   -3.5271 C   0  0  0  0  0  0  0  0  0  0  0  0
    0.5847    1.1724   -0.6471 C   0  0  0  0  0  0  0  0  0  0  0  0
   -0.7596    1.2817   -0.1130 C   0  0  0  0  0  0  0  0  0  0  0  0
   -1.5022    0.1253    0.2543 C   0  0  0  0  0  0  0  0  0  0  0  0
   -0.8839   -1.0966    0.1718 O   0  0  0  0  0  0  0  0  0  0  0  0
   -2.8775    0.1461    0.5730 C   0  0  0  0  0  0  0  0  0  0  0  0
   -3.9174   -1.4248    0.8140 Si  0  0  0  0  0  0  0  0  0  0  0  0
   -4.4178   -2.0248   -0.9118 C   0  0  0  0  0  0  0  0  0  0  0  0
   -4.0499   -1.3427   -2.0860 C   0  0  0  0  0  0  0  0  0  0  0  0
   -4.4394   -1.8149   -3.3428 C   0  0  0  0  0  0  0  0  0  0  0  0
   -5.2008   -2.9750   -3.4512 C   0  0  0  0  0  0  0  0  0  0  0  0
   -5.5735   -3.6676   -2.3033 C   0  0  0  0  0  0  0  0  0  0  0  0
   -5.1850   -3.2000   -1.0453 C   0  0  0  0  0  0  0  0  0  0  0  0
   -5.5291   -0.8726    1.6594 C   0  0  0  0  0  0  0  0  0  0  0  0
   -6.6931   -0.5673    0.9282 C   0  0  0  0  0  0  0  0  0  0  0  0
   -7.8618   -0.1587    1.5769 C   0  0  0  0  0  0  0  0  0  0  0  0
   -7.8897   -0.0448    2.9639 C   0  0  0  0  0  0  0  0  0  0  0  0
   -6.7485   -0.3374    3.7054 C   0  0  0  0  0  0  0  0  0  0  0  0
   -5.5776   -0.7471    3.0616 C   0  0  0  0  0  0  0  0  0  0  0  0
   -3.1034   -2.7796    1.7850 C   0  0  0  0  0  0  0  0  0  0  0  0
   -3.4972    1.4038    0.6372 C   0  0  0  0  0  0  0  0  0  0  0  0
   -2.7974    2.5905    0.4018 C   0  0  0  0  0  0  0  0  0  0  0  0
   -1.4295    2.5482    0.0367 C   0  0  0  0  0  0  0  0  0  0  0  0
   -0.7874    3.8044   -0.1244 C   0  0  0  0  0  0  0  0  0  0  0  0
   -1.4634    5.0206    0.0100 C   0  0  0  0  0  0  0  0  0  0  0  0
   -2.8109    5.0270    0.3294 C   0  0  0  0  0  0  0  0  0  0  0  0
   -3.4708    3.8184    0.5293 C   0  0  0  0  0  0  0  0  0  0  0  0
    1.8471   -2.9826    0.8132 H   0  0  0  0  0  0  0  0  0  0  0  0
    4.2466   -1.8478   -1.3639 H   0  0  0  0  0  0  0  0  0  0  0  0
    4.2604   -4.2941   -1.5386 H   0  0  0  0  0  0  0  0  0  0  0  0
    4.3738   -5.7005    0.4998 H   0  0  0  0  0  0  0  0  0  0  0  0
    4.5165   -4.6376    2.7339 H   0  0  0  0  0  0  0  0  0  0  0  0
    4.5185   -2.1970    2.9536 H   0  0  0  0  0  0  0  0  0  0  0  0
    3.1659    0.1872    3.1534 H   0  0  0  0  0  0  0  0  0  0  0  0
    4.9063    0.4090    3.3621 H   0  0  0  0  0  0  0  0  0  0  0  0
    3.9139    1.7375    2.7488 H   0  0  0  0  0  0  0  0  0  0  0  0
    6.9027   -1.1918   -0.1650 H   0  0  0  0  0  0  0  0  0  0  0  0
    9.0162   -0.2549   -0.9554 H   0  0  0  0  0  0  0  0  0  0  0  0
    9.4063    2.1933   -0.9227 H   0  0  0  0  0  0  0  0  0  0  0  0
    7.6415    3.7136   -0.0738 H   0  0  0  0  0  0  0  0  0  0  0  0
    5.5040    2.8180    0.7258 H   0  0  0  0  0  0  0  0  0  0  0  0
    4.3607    1.3346   -1.7444 H   0  0  0  0  0  0  0  0  0  0  0  0
   -1.0284    2.1685   -2.6712 H   0  0  0  0  0  0  0  0  0  0  0  0
   -0.3148    3.1190   -4.7953 H   0  0  0  0  0  0  0  0  0  0  0  0
    2.0979    3.2322   -5.3745 H   0  0  0  0  0  0  0  0  0  0  0  0
    3.7752    2.3609   -3.8071 H   0  0  0  0  0  0  0  0  0  0  0  0
   -3.4503   -0.4346   -2.0505 H   0  0  0  0  0  0  0  0  0  0  0  0
   -4.1440   -1.2744   -4.2384 H   0  0  0  0  0  0  0  0  0  0  0  0
   -5.5015   -3.3395   -4.4294 H   0  0  0  0  0  0  0  0  0  0  0  0
   -6.1675   -4.5741   -2.3845 H   0  0  0  0  0  0  0  0  0  0  0  0
   -5.4992   -3.7652   -0.1683 H   0  0  0  0  0  0  0  0  0  0  0  0
   -6.7102   -0.6373   -0.1587 H   0  0  0  0  0  0  0  0  0  0  0  0
   -8.7509    0.0710    0.9950 H   0  0  0  0  0  0  0  0  0  0  0  0
   -8.7997    0.2728    3.4660 H   0  0  0  0  0  0  0  0  0  0  0  0
   -6.7665   -0.2465    4.7884 H   0  0  0  0  0  0  0  0  0  0  0  0
   -4.7040   -0.9627    3.6756 H   0  0  0  0  0  0  0  0  0  0  0  0
   -2.2679   -3.2221    1.2353 H   0  0  0  0  0  0  0  0  0  0  0  0
   -2.7263   -2.4096    2.7427 H   0  0  0  0  0  0  0  0  0  0  0  0
   -3.8122   -3.5855    2.0011 H   0  0  0  0  0  0  0  0  0  0  0  0
   -4.5575    1.4792    0.8804 H   0  0  0  0  0  0  0  0  0  0  0  0
    0.2756    3.8544   -0.3525 H   0  0  0  0  0  0  0  0  0  0  0  0
   -0.9292    5.9559   -0.1328 H   0  0  0  0  0  0  0  0  0  0  0  0
   -3.3473    5.9658    0.4359 H   0  0  0  0  0  0  0  0  0  0  0  0
   -4.5263    3.8428    0.7973 H   0  0  0  0  0  0  0  0  0  0  0  0
  2  4  1  0  0  0  0
  2  1  2  0  0  0  0
  3 54  1  0  0  0  0
  3  2  1  0  0  0  0
  5  4  1  0  0  0  0
  6  5  1  0  0  0  0
  6  7  1  0  0  0  0
  7 14  1  0  0  0  0
  8  7  1  0  0  0  0
  8 13  2  0  0  0  0
  9  8  1  0  0  0  0
 10  9  2  0  0  0  0
 10 11  1  0  0  0  0
 11 12  2  0  0  0  0
 12 13  1  0  0  0  0
 12 58  1  0  0  0  0
 13 59  1  0  0  0  0
 14 62  1  0  0  0  0
 14 60  1  0  0  0  0
 14 61  1  0  0  0  0
 15 20  1  0  0  0  0
 15  7  1  0  0  0  0
 16 15  2  0  0  0  0
 17 18  2  0  0  0  0
 17 16  1  0  0  0  0
 18 19  1  0  0  0  0
 19 66  1  0  0  0  0
 19 20  2  0  0  0  0
 20 67  1  0  0  0  0
 21  6  2  0  0  0  0
 22 23  1  0  0  0  0
 22 21  1  0  0  0  0
 23 28  1  0  0  0  0
 24 69  1  0  0  0  0
 24 23  2  0  0  0  0
 25 24  1  0  0  0  0
 26 25  2  0  0  0  0
 26 27  1  0  0  0  0
 27 22  2  0  0  0  0
 28 29  1  0  0  0  0
 28  5  2  0  0  0  0
 29 49  2  0  0  0  0
 29 30  1  0  0  0  0
 30 32  2  0  0  0  0
 31 30  1  0  0  0  0
 31  2  1  0  0  0  0
 32 47  1  0  0  0  0
 32 33  1  0  0  0  0
 33 40  1  0  0  0  0
 33 46  1  0  0  0  0
 34 33  1  0  0  0  0
 35 73  1  0  0  0  0
 35 34  2  0  0  0  0
 36 35  1  0  0  0  0
 37 36  2  0  0  0  0
 37 38  1  0  0  0  0
 38 39  2  0  0  0  0
 39 34  1  0  0  0  0
 39 77  1  0  0  0  0
 40 45  2  0  0  0  0
 41 42  2  0  0  0  0
 41 40  1  0  0  0  0
 42 43  1  0  0  0  0
 43 80  1  0  0  0  0
 43 44  2  0  0  0  0
 44 81  1  0  0  0  0
 45 82  1  0  0  0  0
 45 44  1  0  0  0  0
 46 85  1  0  0  0  0
 46 84  1  0  0  0  0
 47 86  1  0  0  0  0
 48 53  1  0  0  0  0
 48 47  2  0  0  0  0
 49 48  1  0  0  0  0
 50 51  2  0  0  0  0
 50 49  1  0  0  0  0
 51 52  1  0  0  0  0
 52 89  1  0  0  0  0
 52 53  2  0  0  0  0
 53 90  1  0  0  0  0
 55  9  1  0  0  0  0
 56 10  1  0  0  0  0
 57 11  1  0  0  0  0
 63 16  1  0  0  0  0
 64 17  1  0  0  0  0
 65 18  1  0  0  0  0
 68 21  1  0  0  0  0
 70 25  1  0  0  0  0
 71 26  1  0  0  0  0
 72 27  1  0  0  0  0
 74 36  1  0  0  0  0
 75 37  1  0  0  0  0
 76 38  1  0  0  0  0
 78 41  1  0  0  0  0
 79 42  1  0  0  0  0
 83 46  1  0  0  0  0
 87 50  1  0  0  0  0
 88 51  1  0  0  0  0
M  END
$$$$
