O=P1(O)OC2=C(CC3=CC(C(F)(F)F)=CC(C(F)(F)F)=C3)C=C4C(CCCC4)=C2C5=C(O1)C(CC6=CC(C(F)(F)F)=CC(C(F)(F)F)=C6)=CC7=C5CCCC7
 OpenBabel09032010373D

 84 89  0  0  0  0  0  0  0  0999 V2000
   -1.3935    2.7044    0.6224 O   0  0  0  0  0  0  0  0  0  0  0  0
   -0.7542    1.6022   -0.1820 P   0  0  0  0  0  0  0  0  0  0  0  0
   -1.2114    1.6916   -1.7332 O   0  0  0  0  0  0  0  0  0  0  0  0
    0.8502    1.6461   -0.2991 O   0  0  0  0  0  0  0  0  0  0  0  0
    1.6924    0.6663    0.1812 C   0  0  0  0  0  0  0  0  0  0  0  0
    2.8397    1.1242    0.8831 C   0  0  0  0  0  0  0  0  0  0  0  0
    3.0709    2.5857    1.2418 C   0  0  0  0  0  0  0  0  0  0  0  0
    2.2017    3.0026    2.4077 C   0  0  0  0  0  0  0  0  0  0  0  0
    2.4787    2.6067    3.7219 C   0  0  0  0  0  0  0  0  0  0  0  0
    1.5193    2.7650    4.7392 C   0  0  0  0  0  0  0  0  0  0  0  0
    1.8031    2.2682    6.1353 C   0  0  0  0  0  0  0  0  0  0  0  0
    1.1042    2.9380    7.0930 F   0  0  0  0  0  0  0  0  0  0  0  0
    1.4843    0.9537    6.2883 F   0  0  0  0  0  0  0  0  0  0  0  0
    3.1151    2.3794    6.4855 F   0  0  0  0  0  0  0  0  0  0  0  0
    0.2509    3.2739    4.4111 C   0  0  0  0  0  0  0  0  0  0  0  0
   -0.0291    3.6750    3.1012 C   0  0  0  0  0  0  0  0  0  0  0  0
   -1.4340    3.9478    2.6045 C   0  0  0  0  0  0  0  0  0  0  0  0
   -1.8342    2.9591    1.7360 F   0  0  0  0  0  0  0  0  0  0  0  0
   -1.5275    5.1014    1.8943 F   0  0  0  0  0  0  0  0  0  0  0  0
   -2.3676    4.0155    3.5919 F   0  0  0  0  0  0  0  0  0  0  0  0
    0.9862    3.6241    2.1380 C   0  0  0  0  0  0  0  0  0  0  0  0
    3.7768    0.1929    1.3403 C   0  0  0  0  0  0  0  0  0  0  0  0
    3.5589   -1.1669    1.1633 C   0  0  0  0  0  0  0  0  0  0  0  0
    2.4094   -1.6199    0.4756 C   0  0  0  0  0  0  0  0  0  0  0  0
    2.2133   -3.1335    0.4828 C   0  0  0  0  0  0  0  0  0  0  0  0
    2.4939   -3.7111    1.8724 C   0  0  0  0  0  0  0  0  0  0  0  0
    3.8513   -3.3031    2.4510 C   0  0  0  0  0  0  0  0  0  0  0  0
    4.5457   -2.1806    1.6835 C   0  0  0  0  0  0  0  0  0  0  0  0
    1.4810   -0.7138   -0.1203 C   0  0  0  0  0  0  0  0  0  0  0  0
    0.3931   -1.2122   -0.9271 C   0  0  0  0  0  0  0  0  0  0  0  0
   -0.9424   -0.9210   -0.5780 C   0  0  0  0  0  0  0  0  0  0  0  0
   -1.1864    0.1164    0.2873 O   0  0  0  0  0  0  0  0  0  0  0  0
   -2.0546   -1.6072   -1.1085 C   0  0  0  0  0  0  0  0  0  0  0  0
   -3.4809   -1.3647   -0.6374 C   0  0  0  0  0  0  0  0  0  0  0  0
   -4.0540   -0.0589   -1.1402 C   0  0  0  0  0  0  0  0  0  0  0  0
   -4.0320    1.0613   -0.3046 C   0  0  0  0  0  0  0  0  0  0  0  0
   -4.2268    2.3500   -0.8210 C   0  0  0  0  0  0  0  0  0  0  0  0
   -3.8066    3.5259    0.0404 C   0  0  0  0  0  0  0  0  0  0  0  0
   -3.8248    4.7156   -0.6235 F   0  0  0  0  0  0  0  0  0  0  0  0
   -4.6142    3.6871    1.1258 F   0  0  0  0  0  0  0  0  0  0  0  0
   -2.5331    3.3699    0.5199 F   0  0  0  0  0  0  0  0  0  0  0  0
   -4.6234    2.4968   -2.1587 C   0  0  0  0  0  0  0  0  0  0  0  0
   -4.7387    1.3719   -2.9960 C   0  0  0  0  0  0  0  0  0  0  0  0
   -4.9608    1.5453   -4.4824 C   0  0  0  0  0  0  0  0  0  0  0  0
   -5.6007    0.4962   -5.0652 F   0  0  0  0  0  0  0  0  0  0  0  0
   -5.6725    2.6579   -4.8010 F   0  0  0  0  0  0  0  0  0  0  0  0
   -3.7591    1.6637   -5.1163 F   0  0  0  0  0  0  0  0  0  0  0  0
   -4.4407    0.0991   -2.4776 C   0  0  0  0  0  0  0  0  0  0  0  0
   -1.8281   -2.5328   -2.1273 C   0  0  0  0  0  0  0  0  0  0  0  0
   -0.5425   -2.7398   -2.6390 C   0  0  0  0  0  0  0  0  0  0  0  0
    0.5668   -2.0863   -2.0489 C   0  0  0  0  0  0  0  0  0  0  0  0
    1.9196   -2.1820   -2.7461 C   0  0  0  0  0  0  0  0  0  0  0  0
    2.0846   -3.4329   -3.6042 C   0  0  0  0  0  0  0  0  0  0  0  0
    0.9086   -3.5672   -4.5564 C   0  0  0  0  0  0  0  0  0  0  0  0
   -0.3858   -3.7308   -3.7707 C   0  0  0  0  0  0  0  0  0  0  0  0
   -0.8333    0.9912   -2.2979 H   0  0  0  0  0  0  0  0  0  0  0  0
    2.8829    3.2147    0.3625 H   0  0  0  0  0  0  0  0  0  0  0  0
    4.1235    2.7621    1.4986 H   0  0  0  0  0  0  0  0  0  0  0  0
    3.4243    2.1151    3.9494 H   0  0  0  0  0  0  0  0  0  0  0  0
   -0.5351    3.3055    5.1667 H   0  0  0  0  0  0  0  0  0  0  0  0
    0.7580    3.9414    1.1195 H   0  0  0  0  0  0  0  0  0  0  0  0
    4.6617    0.5288    1.8777 H   0  0  0  0  0  0  0  0  0  0  0  0
    2.8844   -3.5902   -0.2538 H   0  0  0  0  0  0  0  0  0  0  0  0
    1.1894   -3.4151    0.2218 H   0  0  0  0  0  0  0  0  0  0  0  0
    2.4171   -4.8044    1.8432 H   0  0  0  0  0  0  0  0  0  0  0  0
    1.7082   -3.3702    2.5604 H   0  0  0  0  0  0  0  0  0  0  0  0
    3.7011   -2.9919    3.4931 H   0  0  0  0  0  0  0  0  0  0  0  0
    4.5179   -4.1730    2.4926 H   0  0  0  0  0  0  0  0  0  0  0  0
    5.2941   -1.7104    2.3323 H   0  0  0  0  0  0  0  0  0  0  0  0
    5.0911   -2.5955    0.8261 H   0  0  0  0  0  0  0  0  0  0  0  0
   -4.1354   -2.1846   -0.9612 H   0  0  0  0  0  0  0  0  0  0  0  0
   -3.5044   -1.4017    0.4596 H   0  0  0  0  0  0  0  0  0  0  0  0
   -3.7048    0.9581    0.7320 H   0  0  0  0  0  0  0  0  0  0  0  0
   -4.7657    3.4950   -2.5782 H   0  0  0  0  0  0  0  0  0  0  0  0
   -4.4384   -0.7624   -3.1452 H   0  0  0  0  0  0  0  0  0  0  0  0
   -2.6677   -3.0760   -2.5599 H   0  0  0  0  0  0  0  0  0  0  0  0
    2.0138   -1.2947   -3.3865 H   0  0  0  0  0  0  0  0  0  0  0  0
    2.7569   -2.1477   -2.0483 H   0  0  0  0  0  0  0  0  0  0  0  0
    3.0197   -3.3682   -4.1718 H   0  0  0  0  0  0  0  0  0  0  0  0
    2.1532   -4.3223   -2.9655 H   0  0  0  0  0  0  0  0  0  0  0  0
    1.0514   -4.4290   -5.2178 H   0  0  0  0  0  0  0  0  0  0  0  0
    0.8480   -2.6776   -5.1961 H   0  0  0  0  0  0  0  0  0  0  0  0
   -1.2286   -3.6397   -4.4668 H   0  0  0  0  0  0  0  0  0  0  0  0
   -0.4234   -4.7396   -3.3402 H   0  0  0  0  0  0  0  0  0  0  0  0
  1 18  1  0  0  0  0
  2 32  1  0  0  0  0
  3  2  1  0  0  0  0
  4  2  1  0  0  0  0
  4  5  1  0  0  0  0
  5  6  1  0  0  0  0
  6  7  1  0  0  0  0
  6 22  2  0  0  0  0
  7 58  1  0  0  0  0
  7  8  1  0  0  0  0
  8  9  1  0  0  0  0
  9 59  1  0  0  0  0
  9 10  2  0  0  0  0
 10 11  1  0  0  0  0
 11 13  1  0  0  0  0
 11 14  1  0  0  0  0
 11 12  1  0  0  0  0
 15 10  1  0  0  0  0
 15 60  1  0  0  0  0
 16 15  2  0  0  0  0
 17 16  1  0  0  0  0
 17 20  1  0  0  0  0
 19 17  1  0  0  0  0
 21  8  2  0  0  0  0
 21 16  1  0  0  0  0
 22 62  1  0  0  0  0
 23 22  1  0  0  0  0
 23 28  1  0  0  0  0
 24 25  1  0  0  0  0
 24 23  2  0  0  0  0
 25 26  1  0  0  0  0
 26 27  1  0  0  0  0
 26 66  1  0  0  0  0
 27 68  1  0  0  0  0
 27 67  1  0  0  0  0
 28 69  1  0  0  0  0
 28 27  1  0  0  0  0
 29  5  2  0  0  0  0
 29 24  1  0  0  0  0
 30 31  1  0  0  0  0
 30 29  1  0  0  0  0
 31 32  1  0  0  0  0
 33 34  1  0  0  0  0
 33 31  2  0  0  0  0
 34 72  1  0  0  0  0
 35 34  1  0  0  0  0
 35 36  2  0  0  0  0
 36 73  1  0  0  0  0
 37 36  1  0  0  0  0
 37 38  1  0  0  0  0
 38 40  1  0  0  0  0
 39 38  1  0  0  0  0
 41  1  1  0  0  0  0
 42 37  2  0  0  0  0
 43 48  2  0  0  0  0
 43 42  1  0  0  0  0
 44 43  1  0  0  0  0
 45 44  1  0  0  0  0
 46 44  1  0  0  0  0
 47 44  1  0  0  0  0
 48 35  1  0  0  0  0
 49 33  1  0  0  0  0
 50 49  2  0  0  0  0
 50 51  1  0  0  0  0
 51 30  2  0  0  0  0
 52 51  1  0  0  0  0
 52 78  1  0  0  0  0
 53 80  1  0  0  0  0
 53 52  1  0  0  0  0
 54 55  1  0  0  0  0
 54 53  1  0  0  0  0
 55 84  1  0  0  0  0
 55 50  1  0  0  0  0
 56  3  1  0  0  0  0
 57  7  1  0  0  0  0
 61 21  1  0  0  0  0
 63 25  1  0  0  0  0
 64 25  1  0  0  0  0
 65 26  1  0  0  0  0
 70 28  1  0  0  0  0
 71 34  1  0  0  0  0
 74 42  1  0  0  0  0
 75 48  1  0  0  0  0
 76 49  1  0  0  0  0
 77 52  1  0  0  0  0
 79 53  1  0  0  0  0
 81 54  1  0  0  0  0
 82 54  1  0  0  0  0
 83 55  1  0  0  0  0
M  RAD  2  17   2  38   2
M  END
$$$$
