O=P1(O)OC2=C(C3=CC(C(C)(C)C)=CC(C(C)(C)C)=C3)C=C4C(CCCC4)=C2C5=C(O1)C(C6=CC(C(C)(C)C)=CC(C(C)(C)C)=C6)=CC7=C5CCCC7
 OpenBabel09032010373D

114120  0  0  0  0  0  0  0  0999 V2000
    0.4960   -0.8033    2.0534 O   0  0  0  0  0  0  0  0  0  0  0  0
   -0.0058   -0.0129    0.8851 P   0  0  0  0  0  0  0  0  0  0  0  0
   -0.5656    1.4248    1.3455 O   0  0  0  0  0  0  0  0  0  0  0  0
    1.0688    0.3504   -0.2615 O   0  0  0  0  0  0  0  0  0  0  0  0
    1.3600   -0.6329   -1.1825 C   0  0  0  0  0  0  0  0  0  0  0  0
    2.6466   -1.1965   -1.1393 C   0  0  0  0  0  0  0  0  0  0  0  0
    3.6724   -0.7451   -0.1899 C   0  0  0  0  0  0  0  0  0  0  0  0
    4.6405    0.1897   -0.5837 C   0  0  0  0  0  0  0  0  0  0  0  0
    5.6407    0.6420    0.2952 C   0  0  0  0  0  0  0  0  0  0  0  0
    6.6762    1.6753   -0.1827 C   0  0  0  0  0  0  0  0  0  0  0  0
    7.7143    2.0683    0.8928 C   0  0  0  0  0  0  0  0  0  0  0  0
    5.9545    2.9706   -0.6138 C   0  0  0  0  0  0  0  0  0  0  0  0
    7.4608    1.1063   -1.3850 C   0  0  0  0  0  0  0  0  0  0  0  0
    5.6352    0.1156    1.5997 C   0  0  0  0  0  0  0  0  0  0  0  0
    4.6825   -0.8302    2.0404 C   0  0  0  0  0  0  0  0  0  0  0  0
    4.7287   -1.3569    3.4868 C   0  0  0  0  0  0  0  0  0  0  0  0
    6.0981   -2.0173    3.7595 C   0  0  0  0  0  0  0  0  0  0  0  0
    3.6467   -2.4135    3.8067 C   0  0  0  0  0  0  0  0  0  0  0  0
    4.5246   -0.1831    4.4687 C   0  0  0  0  0  0  0  0  0  0  0  0
    3.7088   -1.2450    1.1195 C   0  0  0  0  0  0  0  0  0  0  0  0
    2.9456   -2.2147   -2.0459 C   0  0  0  0  0  0  0  0  0  0  0  0
    1.9824   -2.6971   -2.9414 C   0  0  0  0  0  0  0  0  0  0  0  0
    0.7004   -2.0953   -2.9917 C   0  0  0  0  0  0  0  0  0  0  0  0
   -0.3876   -2.7728   -3.8186 C   0  0  0  0  0  0  0  0  0  0  0  0
    0.1473   -3.6392   -4.9558 C   0  0  0  0  0  0  0  0  0  0  0  0
    1.1990   -4.6005   -4.4296 C   0  0  0  0  0  0  0  0  0  0  0  0
    2.3818   -3.8241   -3.8661 C   0  0  0  0  0  0  0  0  0  0  0  0
    0.3780   -0.9884   -2.1411 C   0  0  0  0  0  0  0  0  0  0  0  0
   -0.8589   -0.2509   -2.2159 C   0  0  0  0  0  0  0  0  0  0  0  0
   -1.6779   -0.1170   -1.0697 C   0  0  0  0  0  0  0  0  0  0  0  0
   -1.2626   -0.6718    0.1204 O   0  0  0  0  0  0  0  0  0  0  0  0
   -2.9287    0.5272   -1.0657 C   0  0  0  0  0  0  0  0  0  0  0  0
   -3.7396    0.6449    0.1563 C   0  0  0  0  0  0  0  0  0  0  0  0
   -3.8866    1.8882    0.7894 C   0  0  0  0  0  0  0  0  0  0  0  0
   -4.6207    2.0387    1.9784 C   0  0  0  0  0  0  0  0  0  0  0  0
   -4.7374    3.4232    2.6403 C   0  0  0  0  0  0  0  0  0  0  0  0
   -5.5860    3.4322    3.9320 C   0  0  0  0  0  0  0  0  0  0  0  0
   -3.3297    3.9353    3.0159 C   0  0  0  0  0  0  0  0  0  0  0  0
   -5.3948    4.4165    1.6576 C   0  0  0  0  0  0  0  0  0  0  0  0
   -5.2171    0.8835    2.5149 C   0  0  0  0  0  0  0  0  0  0  0  0
   -5.1014   -0.3892    1.9120 C   0  0  0  0  0  0  0  0  0  0  0  0
   -5.7774   -1.6133    2.5582 C   0  0  0  0  0  0  0  0  0  0  0  0
   -5.5616   -2.9318    1.7808 C   0  0  0  0  0  0  0  0  0  0  0  0
   -7.3015   -1.3807    2.6439 C   0  0  0  0  0  0  0  0  0  0  0  0
   -5.2137   -1.8267    3.9799 C   0  0  0  0  0  0  0  0  0  0  0  0
   -4.3534   -0.4789    0.7282 C   0  0  0  0  0  0  0  0  0  0  0  0
   -3.3739    1.0938   -2.2599 C   0  0  0  0  0  0  0  0  0  0  0  0
   -2.5797    1.0723   -3.4141 C   0  0  0  0  0  0  0  0  0  0  0  0
   -1.3227    0.4154   -3.3979 C   0  0  0  0  0  0  0  0  0  0  0  0
   -0.3891    0.6130   -4.5884 C   0  0  0  0  0  0  0  0  0  0  0  0
   -1.1067    0.9590   -5.8905 C   0  0  0  0  0  0  0  0  0  0  0  0
   -2.0600    2.1200   -5.6689 C   0  0  0  0  0  0  0  0  0  0  0  0
   -3.1306    1.7303   -4.6588 C   0  0  0  0  0  0  0  0  0  0  0  0
   -1.1160    1.3263    2.1437 H   0  0  0  0  0  0  0  0  0  0  0  0
    4.5983    0.5733   -1.6016 H   0  0  0  0  0  0  0  0  0  0  0  0
    8.2947    1.2013    1.2293 H   0  0  0  0  0  0  0  0  0  0  0  0
    8.4295    2.8022    0.5021 H   0  0  0  0  0  0  0  0  0  0  0  0
    7.2361    2.5212    1.7692 H   0  0  0  0  0  0  0  0  0  0  0  0
    5.3620    3.3849    0.2106 H   0  0  0  0  0  0  0  0  0  0  0  0
    5.2745    2.8059   -1.4568 H   0  0  0  0  0  0  0  0  0  0  0  0
    6.6724    3.7377   -0.9270 H   0  0  0  0  0  0  0  0  0  0  0  0
    7.9602    0.1666   -1.1206 H   0  0  0  0  0  0  0  0  0  0  0  0
    6.8133    0.9038   -2.2451 H   0  0  0  0  0  0  0  0  0  0  0  0
    8.2307    1.8097   -1.7232 H   0  0  0  0  0  0  0  0  0  0  0  0
    6.3867    0.4462    2.3112 H   0  0  0  0  0  0  0  0  0  0  0  0
    6.2899   -2.8329    3.0522 H   0  0  0  0  0  0  0  0  0  0  0  0
    6.9275   -1.3069    3.6751 H   0  0  0  0  0  0  0  0  0  0  0  0
    6.1401   -2.4367    4.7716 H   0  0  0  0  0  0  0  0  0  0  0  0
    3.7381   -3.2933    3.1591 H   0  0  0  0  0  0  0  0  0  0  0  0
    2.6362   -2.0058    3.6900 H   0  0  0  0  0  0  0  0  0  0  0  0
    3.7317   -2.7649    4.8421 H   0  0  0  0  0  0  0  0  0  0  0  0
    3.5703    0.3243    4.2835 H   0  0  0  0  0  0  0  0  0  0  0  0
    4.5204   -0.5329    5.5076 H   0  0  0  0  0  0  0  0  0  0  0  0
    5.3174    0.5685    4.3868 H   0  0  0  0  0  0  0  0  0  0  0  0
    2.9435   -1.9628    1.4062 H   0  0  0  0  0  0  0  0  0  0  0  0
    3.9389   -2.6627   -2.0304 H   0  0  0  0  0  0  0  0  0  0  0  0
   -1.0855   -2.0574   -4.2563 H   0  0  0  0  0  0  0  0  0  0  0  0
   -0.9702   -3.4024   -3.1331 H   0  0  0  0  0  0  0  0  0  0  0  0
   -0.6779   -4.1989   -5.4102 H   0  0  0  0  0  0  0  0  0  0  0  0
    0.5794   -3.0053   -5.7403 H   0  0  0  0  0  0  0  0  0  0  0  0
    0.7615   -5.2356   -3.6490 H   0  0  0  0  0  0  0  0  0  0  0  0
    1.5408   -5.2653   -5.2307 H   0  0  0  0  0  0  0  0  0  0  0  0
    3.0387   -4.5267   -3.3391 H   0  0  0  0  0  0  0  0  0  0  0  0
    2.9601   -3.3914   -4.6923 H   0  0  0  0  0  0  0  0  0  0  0  0
   -3.3937    2.7516    0.3433 H   0  0  0  0  0  0  0  0  0  0  0  0
   -5.6407    4.4397    4.3617 H   0  0  0  0  0  0  0  0  0  0  0  0
   -6.6155    3.1076    3.7406 H   0  0  0  0  0  0  0  0  0  0  0  0
   -5.1582    2.7782    4.7008 H   0  0  0  0  0  0  0  0  0  0  0  0
   -2.6884    4.0684    2.1377 H   0  0  0  0  0  0  0  0  0  0  0  0
   -2.8222    3.2349    3.6899 H   0  0  0  0  0  0  0  0  0  0  0  0
   -3.3843    4.9059    3.5226 H   0  0  0  0  0  0  0  0  0  0  0  0
   -4.7962    4.5624    0.7518 H   0  0  0  0  0  0  0  0  0  0  0  0
   -5.5222    5.4029    2.1187 H   0  0  0  0  0  0  0  0  0  0  0  0
   -6.3848    4.0642    1.3445 H   0  0  0  0  0  0  0  0  0  0  0  0
   -5.7942    0.9584    3.4329 H   0  0  0  0  0  0  0  0  0  0  0  0
   -5.9684   -2.8723    0.7645 H   0  0  0  0  0  0  0  0  0  0  0  0
   -4.4983   -3.1891    1.7094 H   0  0  0  0  0  0  0  0  0  0  0  0
   -6.0623   -3.7707    2.2790 H   0  0  0  0  0  0  0  0  0  0  0  0
   -7.7280   -1.1934    1.6513 H   0  0  0  0  0  0  0  0  0  0  0  0
   -7.5564   -0.5246    3.2780 H   0  0  0  0  0  0  0  0  0  0  0  0
   -7.8115   -2.2543    3.0666 H   0  0  0  0  0  0  0  0  0  0  0  0
   -5.6516   -2.7154    4.4494 H   0  0  0  0  0  0  0  0  0  0  0  0
   -5.4239   -0.9795    4.6418 H   0  0  0  0  0  0  0  0  0  0  0  0
   -4.1260   -1.9635    3.9561 H   0  0  0  0  0  0  0  0  0  0  0  0
   -4.2232   -1.4327    0.2223 H   0  0  0  0  0  0  0  0  0  0  0  0
   -4.3448    1.5879   -2.2846 H   0  0  0  0  0  0  0  0  0  0  0  0
    0.2282   -0.2643   -4.7851 H   0  0  0  0  0  0  0  0  0  0  0  0
    0.2969    1.4306   -4.3300 H   0  0  0  0  0  0  0  0  0  0  0  0
   -1.6601    0.0858   -6.2583 H   0  0  0  0  0  0  0  0  0  0  0  0
   -0.3693    1.2211   -6.6575 H   0  0  0  0  0  0  0  0  0  0  0  0
   -2.5315    2.4103   -6.6144 H   0  0  0  0  0  0  0  0  0  0  0  0
   -1.5020    2.9925   -5.3061 H   0  0  0  0  0  0  0  0  0  0  0  0
   -3.8342    1.0292   -5.1253 H   0  0  0  0  0  0  0  0  0  0  0  0
   -3.6961    2.6305   -4.3888 H   0  0  0  0  0  0  0  0  0  0  0  0
  2  3  1  0  0  0  0
  2  1  2  0  0  0  0
  3 54  1  0  0  0  0
  4  2  1  0  0  0  0
  5  6  1  0  0  0  0
  5  4  1  0  0  0  0
  6  7  1  0  0  0  0
  7 20  1  0  0  0  0
  8  7  2  0  0  0  0
  8  9  1  0  0  0  0
  9 14  2  0  0  0  0
 10  9  1  0  0  0  0
 10 11  1  0  0  0  0
 11 56  1  0  0  0  0
 11 58  1  0  0  0  0
 12 10  1  0  0  0  0
 12 59  1  0  0  0  0
 13 62  1  0  0  0  0
 13 10  1  0  0  0  0
 14 15  1  0  0  0  0
 14 65  1  0  0  0  0
 15 16  1  0  0  0  0
 16 17  1  0  0  0  0
 16 18  1  0  0  0  0
 16 19  1  0  0  0  0
 17 68  1  0  0  0  0
 18 71  1  0  0  0  0
 19 73  1  0  0  0  0
 20 75  1  0  0  0  0
 20 15  2  0  0  0  0
 21 76  1  0  0  0  0
 21  6  2  0  0  0  0
 22 21  1  0  0  0  0
 23 22  2  0  0  0  0
 23 28  1  0  0  0  0
 24 78  1  0  0  0  0
 24 23  1  0  0  0  0
 25 26  1  0  0  0  0
 25 24  1  0  0  0  0
 26 27  1  0  0  0  0
 26 81  1  0  0  0  0
 27 83  1  0  0  0  0
 27 22  1  0  0  0  0
 28  5  2  0  0  0  0
 29 28  1  0  0  0  0
 29 30  2  0  0  0  0
 30 32  1  0  0  0  0
 30 31  1  0  0  0  0
 31  2  1  0  0  0  0
 32 33  1  0  0  0  0
 33 46  2  0  0  0  0
 33 34  1  0  0  0  0
 34 35  2  0  0  0  0
 35 40  1  0  0  0  0
 35 36  1  0  0  0  0
 36 38  1  0  0  0  0
 36 37  1  0  0  0  0
 37 86  1  0  0  0  0
 37 88  1  0  0  0  0
 38 91  1  0  0  0  0
 38 90  1  0  0  0  0
 39 93  1  0  0  0  0
 39 36  1  0  0  0  0
 40 95  1  0  0  0  0
 41 40  2  0  0  0  0
 41 42  1  0  0  0  0
 42 44  1  0  0  0  0
 42 45  1  0  0  0  0
 43 98  1  0  0  0  0
 43 42  1  0  0  0  0
 44101  1  0  0  0  0
 44100  1  0  0  0  0
 45102  1  0  0  0  0
 45103  1  0  0  0  0
 46 41  1  0  0  0  0
 47 32  2  0  0  0  0
 48 49  2  0  0  0  0
 48 47  1  0  0  0  0
 49 29  1  0  0  0  0
 50108  1  0  0  0  0
 50 49  1  0  0  0  0
 51 52  1  0  0  0  0
 51 50  1  0  0  0  0
 52112  1  0  0  0  0
 52 53  1  0  0  0  0
 53114  1  0  0  0  0
 53 48  1  0  0  0  0
 55  8  1  0  0  0  0
 57 11  1  0  0  0  0
 60 12  1  0  0  0  0
 61 12  1  0  0  0  0
 63 13  1  0  0  0  0
 64 13  1  0  0  0  0
 66 17  1  0  0  0  0
 67 17  1  0  0  0  0
 69 18  1  0  0  0  0
 70 18  1  0  0  0  0
 72 19  1  0  0  0  0
 74 19  1  0  0  0  0
 77 24  1  0  0  0  0
 79 25  1  0  0  0  0
 80 25  1  0  0  0  0
 82 26  1  0  0  0  0
 84 27  1  0  0  0  0
 85 34  1  0  0  0  0
 87 37  1  0  0  0  0
 89 38  1  0  0  0  0
 92 39  1  0  0  0  0
 94 39  1  0  0  0  0
 96 43  1  0  0  0  0
 97 43  1  0  0  0  0
 99 44  1  0  0  0  0
104 45  1  0  0  0  0
105 46  1  0  0  0  0
106 47  1  0  0  0  0
107 50  1  0  0  0  0
109 51  1  0  0  0  0
110 51  1  0  0  0  0
111 52  1  0  0  0  0
113 53  1  0  0  0  0
M  END
$$$$
