O=P1(O)OC2=C(C3=C(C(C)C)C=C(C4=CC=C(C(C)(C)C)C=C4)C=C3C(C)C)C=C5C(C=CC=C5)=[C@]2[C@]6=C(O1)C(C7=C(C(C)C)C=C(C8=CC=C(C(C)(C)C)C=C8)C=C7C(C)C)=CC9=C6C=CC=C9
 OpenBabel09032010373D

138146  0  0  0  0  0  0  0  0999 V2000
   -0.4629    0.9261   -1.0090 O   0  0  0  0  0  0  0  0  0  0  0  0
   -0.1270   -0.3563   -0.3172 P   0  0  0  0  0  0  0  0  0  0  0  0
    0.2034   -0.0864    1.2317 O   0  0  0  0  0  0  0  0  0  0  0  0
    1.1634   -1.1160   -0.8956 O   0  0  0  0  0  0  0  0  0  0  0  0
    1.4332   -2.4153   -0.5341 C   0  0  0  0  0  0  0  0  0  0  0  0
    2.6838   -2.6381    0.0762 C   0  0  0  0  0  0  0  0  0  0  0  0
    3.6529   -1.5434    0.3121 C   0  0  0  0  0  0  0  0  0  0  0  0
    4.4569   -1.0622   -0.7613 C   0  0  0  0  0  0  0  0  0  0  0  0
    4.3839   -1.6509   -2.1730 C   0  0  0  0  0  0  0  0  0  0  0  0
    3.9224   -0.6092   -3.1977 C   0  0  0  0  0  0  0  0  0  0  0  0
    5.7210   -2.2730   -2.5916 C   0  0  0  0  0  0  0  0  0  0  0  0
    5.3635   -0.0090   -0.5240 C   0  0  0  0  0  0  0  0  0  0  0  0
    5.5208    0.5689    0.7390 C   0  0  0  0  0  0  0  0  0  0  0  0
    6.4657    1.6743    0.9516 C   0  0  0  0  0  0  0  0  0  0  0  0
    7.4850    1.5861    1.9054 C   0  0  0  0  0  0  0  0  0  0  0  0
    8.3804    2.6442    2.1034 C   0  0  0  0  0  0  0  0  0  0  0  0
    8.2931    3.8346    1.3579 C   0  0  0  0  0  0  0  0  0  0  0  0
    9.2941    4.9767    1.6035 C   0  0  0  0  0  0  0  0  0  0  0  0
    9.1916    5.4507    3.0693 C   0  0  0  0  0  0  0  0  0  0  0  0
    9.0629    6.2135    0.7061 C   0  0  0  0  0  0  0  0  0  0  0  0
   10.7292    4.4767    1.3306 C   0  0  0  0  0  0  0  0  0  0  0  0
    7.2670    3.9156    0.4046 C   0  0  0  0  0  0  0  0  0  0  0  0
    6.3719    2.8558    0.2055 C   0  0  0  0  0  0  0  0  0  0  0  0
    4.7474    0.0666    1.7907 C   0  0  0  0  0  0  0  0  0  0  0  0
    3.8034   -0.9657    1.6065 C   0  0  0  0  0  0  0  0  0  0  0  0
    2.9922   -1.4438    2.8141 C   0  0  0  0  0  0  0  0  0  0  0  0
    2.4526   -0.2987    3.6846 C   0  0  0  0  0  0  0  0  0  0  0  0
    3.8262   -2.3958    3.6777 C   0  0  0  0  0  0  0  0  0  0  0  0
    3.0300   -3.9483    0.4108 C   0  0  0  0  0  0  0  0  0  0  0  0
    2.1479   -5.0084    0.1999 C   0  0  0  0  0  0  0  0  0  0  0  0
    0.8966   -4.7788   -0.4314 C   0  0  0  0  0  0  0  0  0  0  0  0
    0.0310   -5.8993   -0.5235 C   0  0  0  0  0  0  0  0  0  0  0  0
    0.3982   -7.1743   -0.0843 C   0  0  0  0  0  0  0  0  0  0  0  0
    1.6460   -7.3750    0.4823 C   0  0  0  0  0  0  0  0  0  0  0  0
    2.5127   -6.2962    0.6282 C   0  0  0  0  0  0  0  0  0  0  0  0
    0.5440   -3.4597   -0.8974 C   0  0  0  0  0  0  0  0  0  0  0  0
   -0.6260   -3.1970   -1.7172 C   0  0  0  0  0  0  0  0  0  0  0  0
   -1.5612   -2.2103   -1.3317 C   0  0  0  0  0  0  0  0  0  0  0  0
   -1.3053   -1.4431   -0.2219 O   0  0  0  0  0  0  0  0  0  0  0  0
   -2.8108   -2.0254   -1.9532 C   0  0  0  0  0  0  0  0  0  0  0  0
   -3.7966   -1.0523   -1.4343 C   0  0  0  0  0  0  0  0  0  0  0  0
   -3.9354    0.2348   -2.0311 C   0  0  0  0  0  0  0  0  0  0  0  0
   -3.1529    0.6457   -3.2828 C   0  0  0  0  0  0  0  0  0  0  0  0
   -2.6597    2.1012   -3.2672 C   0  0  0  0  0  0  0  0  0  0  0  0
   -4.0005    0.4154   -4.5389 C   0  0  0  0  0  0  0  0  0  0  0  0
   -4.8384    1.1554   -1.4622 C   0  0  0  0  0  0  0  0  0  0  0  0
   -5.5844    0.8613   -0.3158 C   0  0  0  0  0  0  0  0  0  0  0  0
   -6.4453    1.8756    0.3071 C   0  0  0  0  0  0  0  0  0  0  0  0
   -5.9179    3.1094    0.7096 C   0  0  0  0  0  0  0  0  0  0  0  0
   -6.7200    4.0772    1.3269 C   0  0  0  0  0  0  0  0  0  0  0  0
   -8.0842    3.8502    1.5624 C   0  0  0  0  0  0  0  0  0  0  0  0
   -8.9969    4.8891    2.2368 C   0  0  0  0  0  0  0  0  0  0  0  0
   -9.5928    4.2943    3.5310 C   0  0  0  0  0  0  0  0  0  0  0  0
  -10.1451    5.2716    1.2780 C   0  0  0  0  0  0  0  0  0  0  0  0
   -8.2724    6.1974    2.6267 C   0  0  0  0  0  0  0  0  0  0  0  0
   -8.6069    2.6093    1.1525 C   0  0  0  0  0  0  0  0  0  0  0  0
   -7.8042    1.6407    0.5382 C   0  0  0  0  0  0  0  0  0  0  0  0
   -5.4628   -0.4162    0.2373 C   0  0  0  0  0  0  0  0  0  0  0  0
   -4.5937   -1.3860   -0.3011 C   0  0  0  0  0  0  0  0  0  0  0  0
   -4.5369   -2.7621    0.3679 C   0  0  0  0  0  0  0  0  0  0  0  0
   -5.8969   -3.4679    0.3136 C   0  0  0  0  0  0  0  0  0  0  0  0
   -4.0281   -2.6718    1.8105 C   0  0  0  0  0  0  0  0  0  0  0  0
   -3.1200   -2.8243   -3.0534 C   0  0  0  0  0  0  0  0  0  0  0  0
   -2.1965   -3.7384   -3.5651 C   0  0  0  0  0  0  0  0  0  0  0  0
   -0.9409   -3.9208   -2.9242 C   0  0  0  0  0  0  0  0  0  0  0  0
   -0.0337   -4.8031   -3.5635 C   0  0  0  0  0  0  0  0  0  0  0  0
   -0.3633   -5.5093   -4.7232 C   0  0  0  0  0  0  0  0  0  0  0  0
   -1.6134   -5.3463   -5.2978 C   0  0  0  0  0  0  0  0  0  0  0  0
   -2.5219   -4.4619   -4.7243 C   0  0  0  0  0  0  0  0  0  0  0  0
   -0.2790    0.7081    1.5253 H   0  0  0  0  0  0  0  0  0  0  0  0
    3.6536   -2.4640   -2.2112 H   0  0  0  0  0  0  0  0  0  0  0  0
    3.7868   -1.0732   -4.1808 H   0  0  0  0  0  0  0  0  0  0  0  0
    4.6464    0.2041   -3.3145 H   0  0  0  0  0  0  0  0  0  0  0  0
    2.9657   -0.1647   -2.9030 H   0  0  0  0  0  0  0  0  0  0  0  0
    5.6247   -2.7698   -3.5633 H   0  0  0  0  0  0  0  0  0  0  0  0
    6.5159   -1.5252   -2.6814 H   0  0  0  0  0  0  0  0  0  0  0  0
    6.0472   -3.0234   -1.8627 H   0  0  0  0  0  0  0  0  0  0  0  0
    5.9761    0.3642   -1.3436 H   0  0  0  0  0  0  0  0  0  0  0  0
    7.5988    0.6819    2.5001 H   0  0  0  0  0  0  0  0  0  0  0  0
    9.1553    2.5190    2.8565 H   0  0  0  0  0  0  0  0  0  0  0  0
    9.4510    4.6586    3.7803 H   0  0  0  0  0  0  0  0  0  0  0  0
    8.1744    5.7848    3.3056 H   0  0  0  0  0  0  0  0  0  0  0  0
    9.8713    6.2891    3.2621 H   0  0  0  0  0  0  0  0  0  0  0  0
    9.7993    6.9981    0.9174 H   0  0  0  0  0  0  0  0  0  0  0  0
    8.0710    6.6508    0.8695 H   0  0  0  0  0  0  0  0  0  0  0  0
    9.1552    5.9635   -0.3572 H   0  0  0  0  0  0  0  0  0  0  0  0
   10.8284    4.1036    0.3043 H   0  0  0  0  0  0  0  0  0  0  0  0
   11.4607    5.2822    1.4649 H   0  0  0  0  0  0  0  0  0  0  0  0
   11.0205    3.6642    2.0052 H   0  0  0  0  0  0  0  0  0  0  0  0
    7.1295    4.8017   -0.2087 H   0  0  0  0  0  0  0  0  0  0  0  0
    5.5847    2.9688   -0.5379 H   0  0  0  0  0  0  0  0  0  0  0  0
    4.8769    0.5076    2.7772 H   0  0  0  0  0  0  0  0  0  0  0  0
    2.1077   -1.9882    2.4665 H   0  0  0  0  0  0  0  0  0  0  0  0
    1.7206   -0.6832    4.4037 H   0  0  0  0  0  0  0  0  0  0  0  0
    3.2435    0.1905    4.2631 H   0  0  0  0  0  0  0  0  0  0  0  0
    1.9594    0.4680    3.0795 H   0  0  0  0  0  0  0  0  0  0  0  0
    4.1914   -3.2493    3.0988 H   0  0  0  0  0  0  0  0  0  0  0  0
    4.7005   -1.8910    4.1043 H   0  0  0  0  0  0  0  0  0  0  0  0
    3.2282   -2.7877    4.5076 H   0  0  0  0  0  0  0  0  0  0  0  0
    4.0036   -4.1327    0.8629 H   0  0  0  0  0  0  0  0  0  0  0  0
   -0.9706   -5.7908   -0.9362 H   0  0  0  0  0  0  0  0  0  0  0  0
   -0.2978   -8.0030   -0.1846 H   0  0  0  0  0  0  0  0  0  0  0  0
    1.9392   -8.3632    0.8258 H   0  0  0  0  0  0  0  0  0  0  0  0
    3.4797   -6.4680    1.0976 H   0  0  0  0  0  0  0  0  0  0  0  0
   -2.2487    0.0321   -3.3602 H   0  0  0  0  0  0  0  0  0  0  0  0
   -2.1681    2.3516   -2.3231 H   0  0  0  0  0  0  0  0  0  0  0  0
   -1.9386    2.2641   -4.0761 H   0  0  0  0  0  0  0  0  0  0  0  0
   -3.4757    2.8162   -3.4181 H   0  0  0  0  0  0  0  0  0  0  0  0
   -3.4246    0.6481   -5.4412 H   0  0  0  0  0  0  0  0  0  0  0  0
   -4.8956    1.0480   -4.5400 H   0  0  0  0  0  0  0  0  0  0  0  0
   -4.3355   -0.6227   -4.6176 H   0  0  0  0  0  0  0  0  0  0  0  0
   -4.9660    2.1362   -1.9162 H   0  0  0  0  0  0  0  0  0  0  0  0
   -4.8616    3.3251    0.5576 H   0  0  0  0  0  0  0  0  0  0  0  0
   -6.2398    5.0074    1.6170 H   0  0  0  0  0  0  0  0  0  0  0  0
  -10.2208    5.0275    4.0505 H   0  0  0  0  0  0  0  0  0  0  0  0
  -10.2201    3.4181    3.3341 H   0  0  0  0  0  0  0  0  0  0  0  0
   -8.8012    3.9833    4.2231 H   0  0  0  0  0  0  0  0  0  0  0  0
  -10.7840    4.4158    1.0341 H   0  0  0  0  0  0  0  0  0  0  0  0
   -9.7545    5.6702    0.3342 H   0  0  0  0  0  0  0  0  0  0  0  0
  -10.7917    6.0378    1.7215 H   0  0  0  0  0  0  0  0  0  0  0  0
   -7.8492    6.7011    1.7498 H   0  0  0  0  0  0  0  0  0  0  0  0
   -8.9627    6.9046    3.1022 H   0  0  0  0  0  0  0  0  0  0  0  0
   -7.4603    6.0121    3.3394 H   0  0  0  0  0  0  0  0  0  0  0  0
   -9.6576    2.3737    1.3064 H   0  0  0  0  0  0  0  0  0  0  0  0
   -8.2557    0.6986    0.2343 H   0  0  0  0  0  0  0  0  0  0  0  0
   -6.0446   -0.6538    1.1267 H   0  0  0  0  0  0  0  0  0  0  0  0
   -3.8420   -3.4173   -0.1653 H   0  0  0  0  0  0  0  0  0  0  0  0
   -6.6593   -2.9441    0.8999 H   0  0  0  0  0  0  0  0  0  0  0  0
   -6.2581   -3.5396   -0.7184 H   0  0  0  0  0  0  0  0  0  0  0  0
   -5.8166   -4.4853    0.7117 H   0  0  0  0  0  0  0  0  0  0  0  0
   -3.0555   -2.1704    1.8548 H   0  0  0  0  0  0  0  0  0  0  0  0
   -3.9074   -3.6735    2.2372 H   0  0  0  0  0  0  0  0  0  0  0  0
   -4.7178   -2.1192    2.4574 H   0  0  0  0  0  0  0  0  0  0  0  0
   -4.0931   -2.7095   -3.5282 H   0  0  0  0  0  0  0  0  0  0  0  0
    0.9700   -4.9463   -3.1665 H   0  0  0  0  0  0  0  0  0  0  0  0
    0.3637   -6.1799   -5.1735 H   0  0  0  0  0  0  0  0  0  0  0  0
   -1.8766   -5.8912   -6.1999 H   0  0  0  0  0  0  0  0  0  0  0  0
   -3.4899   -4.3287   -5.2042 H   0  0  0  0  0  0  0  0  0  0  0  0
  1  2  2  0  0  0  0
  2 39  1  0  0  0  0
  2  3  1  0  0  0  0
  3 70  1  0  0  0  0
  4  5  1  0  0  0  0
  4  2  1  0  0  0  0
  5  6  1  0  0  0  0
  6  7  1  0  0  0  0
  6 29  2  0  0  0  0
  7 25  2  0  0  0  0
  8 12  2  0  0  0  0
  8  7  1  0  0  0  0
  9  8  1  0  0  0  0
 10 74  1  0  0  0  0
 10  9  1  0  0  0  0
 11  9  1  0  0  0  0
 11 77  1  0  0  0  0
 12 13  1  0  0  0  0
 13 14  1  0  0  0  0
 13 24  2  0  0  0  0
 14 15  2  0  0  0  0
 15 16  1  0  0  0  0
 15 79  1  0  0  0  0
 16 80  1  0  0  0  0
 17 18  1  0  0  0  0
 17 16  2  0  0  0  0
 18 19  1  0  0  0  0
 19 83  1  0  0  0  0
 19 82  1  0  0  0  0
 19 81  1  0  0  0  0
 20 85  1  0  0  0  0
 20 84  1  0  0  0  0
 20 18  1  0  0  0  0
 21 88  1  0  0  0  0
 21 18  1  0  0  0  0
 21 89  1  0  0  0  0
 22 17  1  0  0  0  0
 23 22  2  0  0  0  0
 23 14  1  0  0  0  0
 24 92  1  0  0  0  0
 25 24  1  0  0  0  0
 25 26  1  0  0  0  0
 26 28  1  0  0  0  0
 26 27  1  0  0  0  0
 27 95  1  0  0  0  0
 27 94  1  0  0  0  0
 28 98  1  0  0  0  0
 28 99  1  0  0  0  0
 29100  1  0  0  0  0
 30 29  1  0  0  0  0
 30 35  2  0  0  0  0
 31 30  1  0  0  0  0
 32 31  2  0  0  0  0
 32 33  1  0  0  0  0
 33 34  2  0  0  0  0
 34 35  1  0  0  0  0
 34103  1  0  0  0  0
 35104  1  0  0  0  0
 36  5  2  0  0  0  0
 36 31  1  0  0  0  0
 37 38  1  0  0  0  0
 37 36  1  0  0  0  0
 38 39  1  0  0  0  0
 40 41  1  0  0  0  0
 40 38  2  0  0  0  0
 41 59  2  0  0  0  0
 42 46  2  0  0  0  0
 42 41  1  0  0  0  0
 43 44  1  0  0  0  0
 43 42  1  0  0  0  0
 44106  1  0  0  0  0
 45 43  1  0  0  0  0
 46 47  1  0  0  0  0
 47 58  2  0  0  0  0
 47 48  1  0  0  0  0
 48 57  2  0  0  0  0
 48 49  1  0  0  0  0
 49 50  2  0  0  0  0
 50 51  1  0  0  0  0
 50114  1  0  0  0  0
 51 52  1  0  0  0  0
 52 55  1  0  0  0  0
 52 53  1  0  0  0  0
 53115  1  0  0  0  0
 53117  1  0  0  0  0
 54120  1  0  0  0  0
 54 52  1  0  0  0  0
 55122  1  0  0  0  0
 55123  1  0  0  0  0
 56124  1  0  0  0  0
 56 51  2  0  0  0  0
 57 56  1  0  0  0  0
 58126  1  0  0  0  0
 59 58  1  0  0  0  0
 59 60  1  0  0  0  0
 60 62  1  0  0  0  0
 61 60  1  0  0  0  0
 61130  1  0  0  0  0
 61128  1  0  0  0  0
 62131  1  0  0  0  0
 62132  1  0  0  0  0
 62133  1  0  0  0  0
 63 40  1  0  0  0  0
 64 63  2  0  0  0  0
 64 65  1  0  0  0  0
 65 37  2  0  0  0  0
 66135  1  0  0  0  0
 66 65  1  0  0  0  0
 67 66  2  0  0  0  0
 68 69  2  0  0  0  0
 68 67  1  0  0  0  0
 69 64  1  0  0  0  0
 71  9  1  0  0  0  0
 72 10  1  0  0  0  0
 73 10  1  0  0  0  0
 75 11  1  0  0  0  0
 76 11  1  0  0  0  0
 78 12  1  0  0  0  0
 86 20  1  0  0  0  0
 87 21  1  0  0  0  0
 90 22  1  0  0  0  0
 91 23  1  0  0  0  0
 93 26  1  0  0  0  0
 96 27  1  0  0  0  0
 97 28  1  0  0  0  0
101 32  1  0  0  0  0
102 33  1  0  0  0  0
105 43  1  0  0  0  0
107 44  1  0  0  0  0
108 44  1  0  0  0  0
109 45  1  0  0  0  0
110 45  1  0  0  0  0
111 45  1  0  0  0  0
112 46  1  0  0  0  0
113 49  1  0  0  0  0
116 53  1  0  0  0  0
118 54  1  0  0  0  0
119 54  1  0  0  0  0
121 55  1  0  0  0  0
125 57  1  0  0  0  0
127 60  1  0  0  0  0
129 61  1  0  0  0  0
134 63  1  0  0  0  0
136 67  1  0  0  0  0
137 68  1  0  0  0  0
138 69  1  0  0  0  0
M  END
$$$$
