O=P1(O)OC2=C(C3=CC(C4=CC(C(F)(F)F)=CC(C(F)(F)F)=C4)=CC(C5=CC(C(F)(F)F)=CC(C(F)(F)F)=C5)=C3)C=C6C(C=CC=C6)=C2C7=C(O1)C(C8=CC(C9=CC(C(F)(F)F)=CC(C(F)(F)F)=C9)=CC(C%10=CC(C(F)(F)F)=CC(C(F)(F)F)=C%10)=C8)=CC%11=C7C=CC=C%11
 OpenBabel09032010373D

122132  0  0  0  0  0  0  0  0999 V2000
   -0.1703   -1.5602   -0.6934 O   0  0  0  0  0  0  0  0  0  0  0  0
   -0.4478   -0.0983   -0.5026 P   0  0  0  0  0  0  0  0  0  0  0  0
   -0.8279    0.2436    1.0232 O   0  0  0  0  0  0  0  0  0  0  0  0
    0.7610    0.9140   -0.8282 O   0  0  0  0  0  0  0  0  0  0  0  0
    1.0198    1.1428   -2.1604 C   0  0  0  0  0  0  0  0  0  0  0  0
    2.2167    0.6150   -2.6721 C   0  0  0  0  0  0  0  0  0  0  0  0
    3.1827   -0.1017   -1.8298 C   0  0  0  0  0  0  0  0  0  0  0  0
    4.2469    0.5931   -1.2362 C   0  0  0  0  0  0  0  0  0  0  0  0
    5.2076   -0.0574   -0.4459 C   0  0  0  0  0  0  0  0  0  0  0  0
    6.3272    0.6925    0.1557 C   0  0  0  0  0  0  0  0  0  0  0  0
    6.6988    0.5090    1.4988 C   0  0  0  0  0  0  0  0  0  0  0  0
    7.7633    1.2252    2.0779 C   0  0  0  0  0  0  0  0  0  0  0  0
    8.1231    0.9976    3.5283 C   0  0  0  0  0  0  0  0  0  0  0  0
    8.1911   -0.3257    3.8434 F   0  0  0  0  0  0  0  0  0  0  0  0
    7.2094    1.5398    4.3780 F   0  0  0  0  0  0  0  0  0  0  0  0
    9.3267    1.5291    3.8780 F   0  0  0  0  0  0  0  0  0  0  0  0
    8.4573    2.1601    1.2963 C   0  0  0  0  0  0  0  0  0  0  0  0
    8.1048    2.3742   -0.0438 C   0  0  0  0  0  0  0  0  0  0  0  0
    8.8571    3.3664   -0.8959 C   0  0  0  0  0  0  0  0  0  0  0  0
    9.3680    4.4053   -0.1782 F   0  0  0  0  0  0  0  0  0  0  0  0
    9.9131    2.8003   -1.5405 F   0  0  0  0  0  0  0  0  0  0  0  0
    8.0827    3.9302   -1.8647 F   0  0  0  0  0  0  0  0  0  0  0  0
    7.0543    1.6264   -0.6005 C   0  0  0  0  0  0  0  0  0  0  0  0
    5.0685   -1.4434   -0.2577 C   0  0  0  0  0  0  0  0  0  0  0  0
    4.0042   -2.1760   -0.8184 C   0  0  0  0  0  0  0  0  0  0  0  0
    3.8762   -3.6274   -0.5799 C   0  0  0  0  0  0  0  0  0  0  0  0
    4.0175   -4.1614    0.7126 C   0  0  0  0  0  0  0  0  0  0  0  0
    3.9211   -5.5414    0.9595 C   0  0  0  0  0  0  0  0  0  0  0  0
    4.0661   -6.0757    2.3644 C   0  0  0  0  0  0  0  0  0  0  0  0
    4.8477   -5.2895    3.1556 F   0  0  0  0  0  0  0  0  0  0  0  0
    2.8683   -6.1794    3.0022 F   0  0  0  0  0  0  0  0  0  0  0  0
    4.6228   -7.3177    2.4054 F   0  0  0  0  0  0  0  0  0  0  0  0
    3.6492   -6.4049   -0.1115 C   0  0  0  0  0  0  0  0  0  0  0  0
    3.4847   -5.9052   -1.4118 C   0  0  0  0  0  0  0  0  0  0  0  0
    3.2168   -6.8420   -2.5662 C   0  0  0  0  0  0  0  0  0  0  0  0
    2.4638   -7.9200   -2.2123 F   0  0  0  0  0  0  0  0  0  0  0  0
    2.5565   -6.2464   -3.5971 F   0  0  0  0  0  0  0  0  0  0  0  0
    4.3656   -7.3433   -3.0957 F   0  0  0  0  0  0  0  0  0  0  0  0
    3.6119   -4.5215   -1.6312 C   0  0  0  0  0  0  0  0  0  0  0  0
    3.0717   -1.4814   -1.6067 C   0  0  0  0  0  0  0  0  0  0  0  0
    2.4968    0.8173   -4.0233 C   0  0  0  0  0  0  0  0  0  0  0  0
    1.6039    1.4956   -4.8572 C   0  0  0  0  0  0  0  0  0  0  0  0
    0.4029    2.0387   -4.3261 C   0  0  0  0  0  0  0  0  0  0  0  0
   -0.4808    2.6319   -5.2640 C   0  0  0  0  0  0  0  0  0  0  0  0
   -0.1762    2.7420   -6.6237 C   0  0  0  0  0  0  0  0  0  0  0  0
    1.0239    2.2439   -7.1027 C   0  0  0  0  0  0  0  0  0  0  0  0
    1.9048    1.6191   -6.2248 C   0  0  0  0  0  0  0  0  0  0  0  0
    0.1118    1.9253   -2.9164 C   0  0  0  0  0  0  0  0  0  0  0  0
   -1.0178    2.5722   -2.2685 C   0  0  0  0  0  0  0  0  0  0  0  0
   -1.9405    1.8240   -1.4841 C   0  0  0  0  0  0  0  0  0  0  0  0
   -1.7136    0.4674   -1.3261 O   0  0  0  0  0  0  0  0  0  0  0  0
   -3.1517    2.3557   -0.9547 C   0  0  0  0  0  0  0  0  0  0  0  0
   -4.1157    1.5524   -0.1502 C   0  0  0  0  0  0  0  0  0  0  0  0
   -4.6723    2.0370    1.0543 C   0  0  0  0  0  0  0  0  0  0  0  0
   -5.4211    1.2058    1.9033 C   0  0  0  0  0  0  0  0  0  0  0  0
   -5.9401    1.6380    3.2156 C   0  0  0  0  0  0  0  0  0  0  0  0
   -5.6982    0.8313    4.3457 C   0  0  0  0  0  0  0  0  0  0  0  0
   -6.2818    1.0886    5.5904 C   0  0  0  0  0  0  0  0  0  0  0  0
   -6.0496    0.1191    6.7250 C   0  0  0  0  0  0  0  0  0  0  0  0
   -4.8387    0.2969    7.3190 F   0  0  0  0  0  0  0  0  0  0  0  0
   -6.0862   -1.1816    6.3201 F   0  0  0  0  0  0  0  0  0  0  0  0
   -6.9756    0.2285    7.7176 F   0  0  0  0  0  0  0  0  0  0  0  0
   -7.0689    2.2380    5.7315 C   0  0  0  0  0  0  0  0  0  0  0  0
   -7.2930    3.0991    4.6398 C   0  0  0  0  0  0  0  0  0  0  0  0
   -8.1756    4.3174    4.8118 C   0  0  0  0  0  0  0  0  0  0  0  0
   -7.9113    4.9990    5.9611 F   0  0  0  0  0  0  0  0  0  0  0  0
   -9.4982    3.9985    4.8625 F   0  0  0  0  0  0  0  0  0  0  0  0
   -8.0437    5.2228    3.8030 F   0  0  0  0  0  0  0  0  0  0  0  0
   -6.7317    2.7818    3.3852 C   0  0  0  0  0  0  0  0  0  0  0  0
   -5.5496   -0.1489    1.5492 C   0  0  0  0  0  0  0  0  0  0  0  0
   -4.9366   -0.6871    0.4151 C   0  0  0  0  0  0  0  0  0  0  0  0
   -4.5245   -2.1170    0.4087 C   0  0  0  0  0  0  0  0  0  0  0  0
   -3.2777   -2.4412   -0.1509 C   0  0  0  0  0  0  0  0  0  0  0  0
   -2.5590   -3.5859    0.1949 C   0  0  0  0  0  0  0  0  0  0  0  0
   -1.1126   -3.6725   -0.2706 C   0  0  0  0  0  0  0  0  0  0  0  0
   -0.6678   -4.9656   -0.2877 F   0  0  0  0  0  0  0  0  0  0  0  0
   -0.9135   -3.2048   -1.5319 F   0  0  0  0  0  0  0  0  0  0  0  0
   -0.2547   -2.9978    0.5397 F   0  0  0  0  0  0  0  0  0  0  0  0
   -3.1725   -4.5202    1.0446 C   0  0  0  0  0  0  0  0  0  0  0  0
   -4.4802   -4.3020    1.5310 C   0  0  0  0  0  0  0  0  0  0  0  0
   -5.1535   -5.2580    2.5051 C   0  0  0  0  0  0  0  0  0  0  0  0
   -4.6240   -6.5122    2.4771 F   0  0  0  0  0  0  0  0  0  0  0  0
   -5.0538   -4.8298    3.7944 F   0  0  0  0  0  0  0  0  0  0  0  0
   -6.4842   -5.4055    2.2600 F   0  0  0  0  0  0  0  0  0  0  0  0
   -5.1406   -3.1012    1.1963 C   0  0  0  0  0  0  0  0  0  0  0  0
   -4.3897    0.2213   -0.5011 C   0  0  0  0  0  0  0  0  0  0  0  0
   -3.4063    3.7088   -1.1928 C   0  0  0  0  0  0  0  0  0  0  0  0
   -2.4963    4.5256   -1.8726 C   0  0  0  0  0  0  0  0  0  0  0  0
   -1.2906    3.9820   -2.3895 C   0  0  0  0  0  0  0  0  0  0  0  0
   -0.3858    4.9092   -2.9710 C   0  0  0  0  0  0  0  0  0  0  0  0
   -0.6791    6.2693   -3.1009 C   0  0  0  0  0  0  0  0  0  0  0  0
   -1.8871    6.7598   -2.6347 C   0  0  0  0  0  0  0  0  0  0  0  0
   -2.7856    5.8935   -2.0184 C   0  0  0  0  0  0  0  0  0  0  0  0
   -1.3508   -0.4852    1.4054 H   0  0  0  0  0  0  0  0  0  0  0  0
    4.3144    1.6701   -1.3889 H   0  0  0  0  0  0  0  0  0  0  0  0
    6.1463   -0.1979    2.1195 H   0  0  0  0  0  0  0  0  0  0  0  0
    9.2792    2.7295    1.7344 H   0  0  0  0  0  0  0  0  0  0  0  0
    6.8031    1.7813   -1.6510 H   0  0  0  0  0  0  0  0  0  0  0  0
    5.8216   -1.9730    0.3249 H   0  0  0  0  0  0  0  0  0  0  0  0
    4.1983   -3.4900    1.5533 H   0  0  0  0  0  0  0  0  0  0  0  0
    3.5623   -7.4781    0.0688 H   0  0  0  0  0  0  0  0  0  0  0  0
    3.5042   -4.1395   -2.6473 H   0  0  0  0  0  0  0  0  0  0  0  0
    2.2274   -2.0178   -2.0405 H   0  0  0  0  0  0  0  0  0  0  0  0
    3.4238    0.4199   -4.4354 H   0  0  0  0  0  0  0  0  0  0  0  0
   -1.4485    3.0141   -4.9443 H   0  0  0  0  0  0  0  0  0  0  0  0
   -0.8852    3.2108   -7.3015 H   0  0  0  0  0  0  0  0  0  0  0  0
    1.2696    2.3241   -8.1579 H   0  0  0  0  0  0  0  0  0  0  0  0
    2.8318    1.2125   -6.6256 H   0  0  0  0  0  0  0  0  0  0  0  0
   -4.4598    3.0564    1.3731 H   0  0  0  0  0  0  0  0  0  0  0  0
   -5.0558   -0.0473    4.2493 H   0  0  0  0  0  0  0  0  0  0  0  0
   -7.5254    2.4646    6.6967 H   0  0  0  0  0  0  0  0  0  0  0  0
   -6.9435    3.4242    2.5295 H   0  0  0  0  0  0  0  0  0  0  0  0
   -6.0437   -0.8148    2.2534 H   0  0  0  0  0  0  0  0  0  0  0  0
   -2.7740   -1.7399   -0.8069 H   0  0  0  0  0  0  0  0  0  0  0  0
   -2.6243   -5.4135    1.3460 H   0  0  0  0  0  0  0  0  0  0  0  0
   -6.1235   -2.9185    1.6295 H   0  0  0  0  0  0  0  0  0  0  0  0
   -4.0214   -0.1494   -1.4565 H   0  0  0  0  0  0  0  0  0  0  0  0
   -4.3321    4.1479   -0.8217 H   0  0  0  0  0  0  0  0  0  0  0  0
    0.5891    4.5812   -3.3282 H   0  0  0  0  0  0  0  0  0  0  0  0
    0.0444    6.9376   -3.5611 H   0  0  0  0  0  0  0  0  0  0  0  0
   -2.1242    7.8158   -2.7310 H   0  0  0  0  0  0  0  0  0  0  0  0
   -3.7180    6.3048   -1.6351 H   0  0  0  0  0  0  0  0  0  0  0  0
  1  2  2  0  0  0  0
  2  3  1  0  0  0  0
  3 94  1  0  0  0  0
  4  2  1  0  0  0  0
  5  4  1  0  0  0  0
  6  5  1  0  0  0  0
  6  7  1  0  0  0  0
  7 40  2  0  0  0  0
  7  8  1  0  0  0  0
  8  9  2  0  0  0  0
  9 24  1  0  0  0  0
  9 10  1  0  0  0  0
 10 11  2  0  0  0  0
 11 12  1  0  0  0  0
 11 96  1  0  0  0  0
 12 13  1  0  0  0  0
 13 14  1  0  0  0  0
 13 16  1  0  0  0  0
 13 15  1  0  0  0  0
 17 97  1  0  0  0  0
 17 12  2  0  0  0  0
 18 17  1  0  0  0  0
 19 20  1  0  0  0  0
 19 18  1  0  0  0  0
 21 19  1  0  0  0  0
 22 19  1  0  0  0  0
 23 18  2  0  0  0  0
 23 10  1  0  0  0  0
 24 99  1  0  0  0  0
 25 26  1  0  0  0  0
 25 24  2  0  0  0  0
 26 27  2  0  0  0  0
 27 28  1  0  0  0  0
 27100  1  0  0  0  0
 28 29  1  0  0  0  0
 29 32  1  0  0  0  0
 29 31  1  0  0  0  0
 29 30  1  0  0  0  0
 33101  1  0  0  0  0
 33 28  2  0  0  0  0
 34 33  1  0  0  0  0
 35 36  1  0  0  0  0
 35 34  1  0  0  0  0
 37 35  1  0  0  0  0
 38 35  1  0  0  0  0
 39 34  2  0  0  0  0
 39 26  1  0  0  0  0
 40 25  1  0  0  0  0
 41  6  2  0  0  0  0
 42 43  1  0  0  0  0
 42 41  1  0  0  0  0
 43 48  1  0  0  0  0
 44105  1  0  0  0  0
 44 43  2  0  0  0  0
 45 44  1  0  0  0  0
 46 45  2  0  0  0  0
 46 47  1  0  0  0  0
 47 42  2  0  0  0  0
 48 49  1  0  0  0  0
 48  5  2  0  0  0  0
 49 50  1  0  0  0  0
 50 51  1  0  0  0  0
 50 52  2  0  0  0  0
 51  2  1  0  0  0  0
 52 53  1  0  0  0  0
 53 54  1  0  0  0  0
 54109  1  0  0  0  0
 54 55  2  0  0  0  0
 55 56  1  0  0  0  0
 56 69  2  0  0  0  0
 56 57  1  0  0  0  0
 57 58  2  0  0  0  0
 58 63  1  0  0  0  0
 58 59  1  0  0  0  0
 59 60  1  0  0  0  0
 59 62  1  0  0  0  0
 61 59  1  0  0  0  0
 63111  1  0  0  0  0
 64 65  1  0  0  0  0
 64 63  2  0  0  0  0
 65 67  1  0  0  0  0
 65 66  1  0  0  0  0
 68 65  1  0  0  0  0
 69 64  1  0  0  0  0
 70 55  1  0  0  0  0
 70113  1  0  0  0  0
 71 70  2  0  0  0  0
 72 71  1  0  0  0  0
 72 85  2  0  0  0  0
 73 74  2  0  0  0  0
 73 72  1  0  0  0  0
 74 79  1  0  0  0  0
 75 74  1  0  0  0  0
 75 78  1  0  0  0  0
 76 75  1  0  0  0  0
 77 75  1  0  0  0  0
 79115  1  0  0  0  0
 79 80  2  0  0  0  0
 80 81  1  0  0  0  0
 81 83  1  0  0  0  0
 82 81  1  0  0  0  0
 84 81  1  0  0  0  0
 85 80  1  0  0  0  0
 85116  1  0  0  0  0
 86 53  2  0  0  0  0
 86 71  1  0  0  0  0
 87 52  1  0  0  0  0
 87118  1  0  0  0  0
 88 87  2  0  0  0  0
 89 49  2  0  0  0  0
 89 88  1  0  0  0  0
 90 89  1  0  0  0  0
 91 90  2  0  0  0  0
 91 92  1  0  0  0  0
 92 93  2  0  0  0  0
 93 88  1  0  0  0  0
 93122  1  0  0  0  0
 95  8  1  0  0  0  0
 98 23  1  0  0  0  0
102 39  1  0  0  0  0
103 40  1  0  0  0  0
104 41  1  0  0  0  0
106 45  1  0  0  0  0
107 46  1  0  0  0  0
108 47  1  0  0  0  0
110 57  1  0  0  0  0
112 69  1  0  0  0  0
114 73  1  0  0  0  0
117 86  1  0  0  0  0
119 90  1  0  0  0  0
120 91  1  0  0  0  0
121 92  1  0  0  0  0
M  END
$$$$
