O=P1(O)OC2=C(C3=CC(C4=CC=C(OC)C=C4)=CC(C5=CC=C(OC)C=C5)=C3)C=C6C(C=CC=C6)=C2C7=C(O1)C(C8=CC(C9=CC=C(OC)C=C9)=CC(C%10=CC=C(OC)C=C%10)=C8)=CC%11=C7C=CC=C%11
 OpenBabel09032010383D

114124  0  0  0  0  0  0  0  0999 V2000
   -0.0895    1.6075   -0.3847 O   0  0  0  0  0  0  0  0  0  0  0  0
    0.2562    0.2219    0.0680 P   0  0  0  0  0  0  0  0  0  0  0  0
    0.3317    0.1585    1.6733 O   0  0  0  0  0  0  0  0  0  0  0  0
   -0.8171   -0.9230   -0.2980 O   0  0  0  0  0  0  0  0  0  0  0  0
   -0.8521   -1.3447   -1.6070 C   0  0  0  0  0  0  0  0  0  0  0  0
   -2.0061   -1.0412   -2.3506 C   0  0  0  0  0  0  0  0  0  0  0  0
   -3.1673   -0.3503   -1.7714 C   0  0  0  0  0  0  0  0  0  0  0  0
   -4.3173   -1.0741   -1.4169 C   0  0  0  0  0  0  0  0  0  0  0  0
   -5.4547   -0.4426   -0.8892 C   0  0  0  0  0  0  0  0  0  0  0  0
   -6.6642   -1.2137   -0.5498 C   0  0  0  0  0  0  0  0  0  0  0  0
   -7.2534   -2.0827   -1.4833 C   0  0  0  0  0  0  0  0  0  0  0  0
   -8.4111   -2.8110   -1.1756 C   0  0  0  0  0  0  0  0  0  0  0  0
   -9.0056   -2.6851    0.0778 C   0  0  0  0  0  0  0  0  0  0  0  0
  -10.1318   -3.3321    0.5054 O   0  0  0  0  0  0  0  0  0  0  0  0
  -10.7408   -4.2353   -0.4084 C   0  0  0  0  0  0  0  0  0  0  0  0
   -8.4314   -1.8261    1.0154 C   0  0  0  0  0  0  0  0  0  0  0  0
   -7.2750   -1.0996    0.7077 C   0  0  0  0  0  0  0  0  0  0  0  0
   -5.4085    0.9509   -0.7084 C   0  0  0  0  0  0  0  0  0  0  0  0
   -4.2775    1.7145   -1.0519 C   0  0  0  0  0  0  0  0  0  0  0  0
   -4.2588    3.1775   -0.8591 C   0  0  0  0  0  0  0  0  0  0  0  0
   -5.3291    3.9829   -1.2827 C   0  0  0  0  0  0  0  0  0  0  0  0
   -5.3184    5.3725   -1.0972 C   0  0  0  0  0  0  0  0  0  0  0  0
   -4.2312    5.9890   -0.4823 C   0  0  0  0  0  0  0  0  0  0  0  0
   -4.0935    7.3274   -0.2392 O   0  0  0  0  0  0  0  0  0  0  0  0
   -5.1570    8.1707   -0.6643 C   0  0  0  0  0  0  0  0  0  0  0  0
   -3.1590    5.2038   -0.0596 C   0  0  0  0  0  0  0  0  0  0  0  0
   -3.1706    3.8171   -0.2460 C   0  0  0  0  0  0  0  0  0  0  0  0
   -3.1684    1.0402   -1.5898 C   0  0  0  0  0  0  0  0  0  0  0  0
   -2.0485   -1.4438   -3.6871 C   0  0  0  0  0  0  0  0  0  0  0  0
   -0.9711   -2.1017   -4.2853 C   0  0  0  0  0  0  0  0  0  0  0  0
    0.1793   -2.4248   -3.5188 C   0  0  0  0  0  0  0  0  0  0  0  0
    1.2582   -3.0142   -4.2275 C   0  0  0  0  0  0  0  0  0  0  0  0
    1.1856   -3.3250   -5.5880 C   0  0  0  0  0  0  0  0  0  0  0  0
    0.0310   -3.0397   -6.2982 C   0  0  0  0  0  0  0  0  0  0  0  0
   -1.0378   -2.4262   -5.6512 C   0  0  0  0  0  0  0  0  0  0  0  0
    0.2285   -2.1096   -2.1120 C   0  0  0  0  0  0  0  0  0  0  0  0
    1.2861   -2.5627   -1.2288 C   0  0  0  0  0  0  0  0  0  0  0  0
    2.0110   -1.6460   -0.4266 C   0  0  0  0  0  0  0  0  0  0  0  0
    1.6900   -0.3046   -0.4359 O   0  0  0  0  0  0  0  0  0  0  0  0
    3.1644   -2.0029    0.3066 C   0  0  0  0  0  0  0  0  0  0  0  0
    3.9247   -1.0064    1.0722 C   0  0  0  0  0  0  0  0  0  0  0  0
    3.3532   -0.4282    2.2080 C   0  0  0  0  0  0  0  0  0  0  0  0
    3.9422    0.6596    2.8645 C   0  0  0  0  0  0  0  0  0  0  0  0
    3.1698    1.3671    3.8938 C   0  0  0  0  0  0  0  0  0  0  0  0
    2.5918    0.6771    4.9705 C   0  0  0  0  0  0  0  0  0  0  0  0
    1.6915    1.3087    5.8345 C   0  0  0  0  0  0  0  0  0  0  0  0
    1.3564    2.6456    5.6355 C   0  0  0  0  0  0  0  0  0  0  0  0
    0.4374    3.3576    6.3500 O   0  0  0  0  0  0  0  0  0  0  0  0
   -0.2598    2.6622    7.3755 C   0  0  0  0  0  0  0  0  0  0  0  0
    1.9702    3.3590    4.6060 C   0  0  0  0  0  0  0  0  0  0  0  0
    2.8682    2.7284    3.7427 C   0  0  0  0  0  0  0  0  0  0  0  0
    5.1991    1.0958    2.4238 C   0  0  0  0  0  0  0  0  0  0  0  0
    5.8457    0.4915    1.3287 C   0  0  0  0  0  0  0  0  0  0  0  0
    7.1632    0.9617    0.8670 C   0  0  0  0  0  0  0  0  0  0  0  0
    8.2163    0.0588    0.6474 C   0  0  0  0  0  0  0  0  0  0  0  0
    9.4682    0.4943    0.1939 C   0  0  0  0  0  0  0  0  0  0  0  0
    9.6919    1.8473   -0.0490 C   0  0  0  0  0  0  0  0  0  0  0  0
   10.8563    2.4044   -0.4972 O   0  0  0  0  0  0  0  0  0  0  0  0
   11.9418    1.5180   -0.7368 C   0  0  0  0  0  0  0  0  0  0  0  0
    8.6573    2.7567    0.1698 C   0  0  0  0  0  0  0  0  0  0  0  0
    7.4072    2.3211    0.6212 C   0  0  0  0  0  0  0  0  0  0  0  0
    5.1814   -0.5509    0.6554 C   0  0  0  0  0  0  0  0  0  0  0  0
    3.5702   -3.3364    0.3025 C   0  0  0  0  0  0  0  0  0  0  0  0
    2.8397   -4.3108   -0.3795 C   0  0  0  0  0  0  0  0  0  0  0  0
    1.6878   -3.9466   -1.1282 C   0  0  0  0  0  0  0  0  0  0  0  0
    0.9605   -5.0182   -1.7094 C   0  0  0  0  0  0  0  0  0  0  0  0
    1.3740   -6.3502   -1.6177 C   0  0  0  0  0  0  0  0  0  0  0  0
    2.5282   -6.6660   -0.9206 C   0  0  0  0  0  0  0  0  0  0  0  0
    3.2517   -5.6523   -0.2998 C   0  0  0  0  0  0  0  0  0  0  0  0
    0.5239    1.0411    2.0459 H   0  0  0  0  0  0  0  0  0  0  0  0
   -4.3191   -2.1558   -1.5471 H   0  0  0  0  0  0  0  0  0  0  0  0
   -6.8196   -2.1903   -2.4759 H   0  0  0  0  0  0  0  0  0  0  0  0
   -8.8221   -3.4603   -1.9413 H   0  0  0  0  0  0  0  0  0  0  0  0
  -10.0604   -5.0528   -0.6689 H   0  0  0  0  0  0  0  0  0  0  0  0
  -11.0929   -3.7127   -1.3039 H   0  0  0  0  0  0  0  0  0  0  0  0
  -11.6134   -4.6733    0.0858 H   0  0  0  0  0  0  0  0  0  0  0  0
   -8.8868   -1.7207    1.9973 H   0  0  0  0  0  0  0  0  0  0  0  0
   -6.8500   -0.4468    1.4676 H   0  0  0  0  0  0  0  0  0  0  0  0
   -6.2797    1.4557   -0.2924 H   0  0  0  0  0  0  0  0  0  0  0  0
   -6.1869    3.5326   -1.7788 H   0  0  0  0  0  0  0  0  0  0  0  0
   -6.1743    5.9382   -1.4488 H   0  0  0  0  0  0  0  0  0  0  0  0
   -5.2862    8.1260   -1.7508 H   0  0  0  0  0  0  0  0  0  0  0  0
   -6.0884    7.9236   -0.1443 H   0  0  0  0  0  0  0  0  0  0  0  0
   -4.8926    9.1998   -0.4026 H   0  0  0  0  0  0  0  0  0  0  0  0
   -2.3025    5.6722    0.4189 H   0  0  0  0  0  0  0  0  0  0  0  0
   -2.3156    3.2386    0.1003 H   0  0  0  0  0  0  0  0  0  0  0  0
   -2.2890    1.6121   -1.8860 H   0  0  0  0  0  0  0  0  0  0  0  0
   -2.9338   -1.2083   -4.2774 H   0  0  0  0  0  0  0  0  0  0  0  0
    2.1976   -3.2311   -3.7216 H   0  0  0  0  0  0  0  0  0  0  0  0
    2.0367   -3.7829   -6.0854 H   0  0  0  0  0  0  0  0  0  0  0  0
   -0.0339   -3.2763   -7.3565 H   0  0  0  0  0  0  0  0  0  0  0  0
   -1.9272   -2.1877   -6.2319 H   0  0  0  0  0  0  0  0  0  0  0  0
    2.3846   -0.7950    2.5447 H   0  0  0  0  0  0  0  0  0  0  0  0
    2.8100   -0.3788    5.1221 H   0  0  0  0  0  0  0  0  0  0  0  0
    1.2528    0.7192    6.6324 H   0  0  0  0  0  0  0  0  0  0  0  0
   -0.8387    1.8280    6.9653 H   0  0  0  0  0  0  0  0  0  0  0  0
    0.4265    2.3214    8.1577 H   0  0  0  0  0  0  0  0  0  0  0  0
   -0.9649    3.3623    7.8340 H   0  0  0  0  0  0  0  0  0  0  0  0
    1.7235    4.4076    4.4555 H   0  0  0  0  0  0  0  0  0  0  0  0
    3.2886    3.2991    2.9168 H   0  0  0  0  0  0  0  0  0  0  0  0
    5.6819    1.9250    2.9391 H   0  0  0  0  0  0  0  0  0  0  0  0
    8.0716   -1.0034    0.8364 H   0  0  0  0  0  0  0  0  0  0  0  0
   10.2415   -0.2511    0.0427 H   0  0  0  0  0  0  0  0  0  0  0  0
   11.6958    0.7954   -1.5219 H   0  0  0  0  0  0  0  0  0  0  0  0
   12.7893    2.1147   -1.0878 H   0  0  0  0  0  0  0  0  0  0  0  0
   12.2497    1.0125    0.1844 H   0  0  0  0  0  0  0  0  0  0  0  0
    8.8249    3.8148   -0.0177 H   0  0  0  0  0  0  0  0  0  0  0  0
    6.6187    3.0570    0.7638 H   0  0  0  0  0  0  0  0  0  0  0  0
    5.6308   -0.9848   -0.2370 H   0  0  0  0  0  0  0  0  0  0  0  0
    4.4523   -3.6197    0.8755 H   0  0  0  0  0  0  0  0  0  0  0  0
    0.0310   -4.8286   -2.2438 H   0  0  0  0  0  0  0  0  0  0  0  0
    0.7861   -7.1341   -2.0887 H   0  0  0  0  0  0  0  0  0  0  0  0
    2.8566   -7.6988   -0.8440 H   0  0  0  0  0  0  0  0  0  0  0  0
    4.1423   -5.9237    0.2644 H   0  0  0  0  0  0  0  0  0  0  0  0
  1  2  2  0  0  0  0
  2  3  1  0  0  0  0
  3 70  1  0  0  0  0
  4  2  1  0  0  0  0
  5  4  1  0  0  0  0
  6  7  1  0  0  0  0
  6  5  2  0  0  0  0
  7 28  2  0  0  0  0
  7  8  1  0  0  0  0
  8  9  2  0  0  0  0
  9 18  1  0  0  0  0
  9 10  1  0  0  0  0
 10 17  2  0  0  0  0
 11 12  2  0  0  0  0
 11 10  1  0  0  0  0
 12 13  1  0  0  0  0
 13 14  1  0  0  0  0
 13 16  2  0  0  0  0
 15 76  1  0  0  0  0
 15 14  1  0  0  0  0
 16 77  1  0  0  0  0
 17 16  1  0  0  0  0
 17 78  1  0  0  0  0
 18 79  1  0  0  0  0
 19 20  1  0  0  0  0
 19 18  2  0  0  0  0
 20 27  2  0  0  0  0
 21 22  2  0  0  0  0
 21 20  1  0  0  0  0
 22 23  1  0  0  0  0
 23 24  1  0  0  0  0
 23 26  2  0  0  0  0
 25 84  1  0  0  0  0
 25 24  1  0  0  0  0
 25 83  1  0  0  0  0
 26 85  1  0  0  0  0
 27 26  1  0  0  0  0
 27 86  1  0  0  0  0
 28 19  1  0  0  0  0
 29  6  1  0  0  0  0
 30 29  2  0  0  0  0
 30 31  1  0  0  0  0
 31 36  2  0  0  0  0
 32 89  1  0  0  0  0
 32 31  1  0  0  0  0
 33 32  2  0  0  0  0
 34 35  2  0  0  0  0
 34 33  1  0  0  0  0
 35 30  1  0  0  0  0
 36  5  1  0  0  0  0
 36 37  1  0  0  0  0
 37 65  2  0  0  0  0
 37 38  1  0  0  0  0
 38 40  2  0  0  0  0
 39 38  1  0  0  0  0
 39  2  1  0  0  0  0
 40 41  1  0  0  0  0
 41 42  1  0  0  0  0
 42 93  1  0  0  0  0
 42 43  2  0  0  0  0
 43 44  1  0  0  0  0
 44 45  1  0  0  0  0
 45 94  1  0  0  0  0
 45 46  2  0  0  0  0
 46 95  1  0  0  0  0
 47 46  1  0  0  0  0
 47 48  1  0  0  0  0
 48 49  1  0  0  0  0
 49 98  1  0  0  0  0
 49 97  1  0  0  0  0
 50 47  2  0  0  0  0
 51 44  2  0  0  0  0
 51 50  1  0  0  0  0
 52 43  1  0  0  0  0
 52101  1  0  0  0  0
 53 52  2  0  0  0  0
 54 53  1  0  0  0  0
 55102  1  0  0  0  0
 55 54  1  0  0  0  0
 56 55  2  0  0  0  0
 57 60  2  0  0  0  0
 57 56  1  0  0  0  0
 58 57  1  0  0  0  0
 59 58  1  0  0  0  0
 59106  1  0  0  0  0
 60 61  1  0  0  0  0
 61108  1  0  0  0  0
 61 54  2  0  0  0  0
 62 41  2  0  0  0  0
 62 53  1  0  0  0  0
 63 40  1  0  0  0  0
 63110  1  0  0  0  0
 64 69  1  0  0  0  0
 64 63  2  0  0  0  0
 65 64  1  0  0  0  0
 66 67  2  0  0  0  0
 66 65  1  0  0  0  0
 67 68  1  0  0  0  0
 68113  1  0  0  0  0
 68 69  2  0  0  0  0
 69114  1  0  0  0  0
 71  8  1  0  0  0  0
 72 11  1  0  0  0  0
 73 12  1  0  0  0  0
 74 15  1  0  0  0  0
 75 15  1  0  0  0  0
 80 21  1  0  0  0  0
 81 22  1  0  0  0  0
 82 25  1  0  0  0  0
 87 28  1  0  0  0  0
 88 29  1  0  0  0  0
 90 33  1  0  0  0  0
 91 34  1  0  0  0  0
 92 35  1  0  0  0  0
 96 49  1  0  0  0  0
 99 50  1  0  0  0  0
100 51  1  0  0  0  0
103 56  1  0  0  0  0
104 59  1  0  0  0  0
105 59  1  0  0  0  0
107 60  1  0  0  0  0
109 62  1  0  0  0  0
111 66  1  0  0  0  0
112 67  1  0  0  0  0
M  END
$$$$
