O=P1(O)OC2=C(C3=C(OC(F)(F)F)C=CC=C3)C=C4C(C=CC=C4)=C2C5=C(O1)C(C6=CC=CC=C6OC(F)(F)F)=CC7=C5C=CC=C7
 OpenBabel09032010383D

 66 72  0  0  0  0  0  0  0  0999 V2000
   -0.6598    0.9438    3.1822 O   0  0  0  0  0  0  0  0  0  0  0  0
   -0.0477    0.0661    2.1361 P   0  0  0  0  0  0  0  0  0  0  0  0
    0.6903   -1.1987    2.8033 O   0  0  0  0  0  0  0  0  0  0  0  0
    1.0726    0.7537    1.2089 O   0  0  0  0  0  0  0  0  0  0  0  0
    1.4630    0.1507    0.0321 C   0  0  0  0  0  0  0  0  0  0  0  0
    2.8203   -0.2093   -0.0577 C   0  0  0  0  0  0  0  0  0  0  0  0
    3.7754    0.0087    1.0420 C   0  0  0  0  0  0  0  0  0  0  0  0
    4.6412    1.1177    1.0704 C   0  0  0  0  0  0  0  0  0  0  0  0
    4.6306    1.9993    0.0207 O   0  0  0  0  0  0  0  0  0  0  0  0
    4.1063    3.2659    0.4016 C   0  0  0  0  0  0  0  0  0  0  0  0
    2.9461    3.1510    1.0811 F   0  0  0  0  0  0  0  0  0  0  0  0
    4.9989    3.9500    1.1507 F   0  0  0  0  0  0  0  0  0  0  0  0
    3.8677    3.9854   -0.7186 F   0  0  0  0  0  0  0  0  0  0  0  0
    5.5744    1.2754    2.1008 C   0  0  0  0  0  0  0  0  0  0  0  0
    5.6271    0.3484    3.1400 C   0  0  0  0  0  0  0  0  0  0  0  0
    4.7664   -0.7457    3.1387 C   0  0  0  0  0  0  0  0  0  0  0  0
    3.8547   -0.9174    2.0946 C   0  0  0  0  0  0  0  0  0  0  0  0
    3.2696   -0.7878   -1.2449 C   0  0  0  0  0  0  0  0  0  0  0  0
    2.4049   -1.0279   -2.3136 C   0  0  0  0  0  0  0  0  0  0  0  0
    1.0373   -0.6553   -2.2225 C   0  0  0  0  0  0  0  0  0  0  0  0
    0.2186   -1.0323   -3.3192 C   0  0  0  0  0  0  0  0  0  0  0  0
    0.7254   -1.6638   -4.4590 C   0  0  0  0  0  0  0  0  0  0  0  0
    2.0749   -1.9650   -4.5375 C   0  0  0  0  0  0  0  0  0  0  0  0
    2.9070   -1.6560   -3.4664 C   0  0  0  0  0  0  0  0  0  0  0  0
    0.5412    0.0159   -1.0440 C   0  0  0  0  0  0  0  0  0  0  0  0
   -0.8129    0.5311   -0.9393 C   0  0  0  0  0  0  0  0  0  0  0  0
   -1.6303    0.1383    0.1454 C   0  0  0  0  0  0  0  0  0  0  0  0
   -1.0818   -0.6454    1.1310 O   0  0  0  0  0  0  0  0  0  0  0  0
   -2.9967    0.4472    0.2645 C   0  0  0  0  0  0  0  0  0  0  0  0
   -3.8240   -0.0326    1.3900 C   0  0  0  0  0  0  0  0  0  0  0  0
   -4.3659    0.8950    2.2978 C   0  0  0  0  0  0  0  0  0  0  0  0
   -5.1654    0.4794    3.3643 C   0  0  0  0  0  0  0  0  0  0  0  0
   -5.4475   -0.8721    3.5376 C   0  0  0  0  0  0  0  0  0  0  0  0
   -4.9200   -1.8127    2.6544 C   0  0  0  0  0  0  0  0  0  0  0  0
   -4.0934   -1.4005    1.6021 C   0  0  0  0  0  0  0  0  0  0  0  0
   -3.5868   -2.3043    0.7042 O   0  0  0  0  0  0  0  0  0  0  0  0
   -2.8187   -3.3347    1.3127 C   0  0  0  0  0  0  0  0  0  0  0  0
   -1.9825   -3.8590    0.3894 F   0  0  0  0  0  0  0  0  0  0  0  0
   -2.0726   -2.8841    2.3486 F   0  0  0  0  0  0  0  0  0  0  0  0
   -3.6271   -4.3246    1.7528 F   0  0  0  0  0  0  0  0  0  0  0  0
   -3.5679    1.2417   -0.7309 C   0  0  0  0  0  0  0  0  0  0  0  0
   -2.8069    1.7412   -1.7924 C   0  0  0  0  0  0  0  0  0  0  0  0
   -1.4275    1.4145   -1.9002 C   0  0  0  0  0  0  0  0  0  0  0  0
   -0.7160    2.0387   -2.9561 C   0  0  0  0  0  0  0  0  0  0  0  0
   -1.3362    2.8761   -3.8877 C   0  0  0  0  0  0  0  0  0  0  0  0
   -2.6932    3.1374   -3.7846 C   0  0  0  0  0  0  0  0  0  0  0  0
   -3.4214    2.5787   -2.7386 C   0  0  0  0  0  0  0  0  0  0  0  0
    0.1750   -1.5034    3.5726 H   0  0  0  0  0  0  0  0  0  0  0  0
    6.2721    2.1089    2.0968 H   0  0  0  0  0  0  0  0  0  0  0  0
    6.3462    0.4742    3.9455 H   0  0  0  0  0  0  0  0  0  0  0  0
    4.8056   -1.4734    3.9451 H   0  0  0  0  0  0  0  0  0  0  0  0
    3.1991   -1.7863    2.1045 H   0  0  0  0  0  0  0  0  0  0  0  0
    4.3189   -1.0710   -1.3233 H   0  0  0  0  0  0  0  0  0  0  0  0
   -0.8537   -0.8464   -3.2977 H   0  0  0  0  0  0  0  0  0  0  0  0
    0.0602   -1.9175   -5.2805 H   0  0  0  0  0  0  0  0  0  0  0  0
    2.4781   -2.4547   -5.4194 H   0  0  0  0  0  0  0  0  0  0  0  0
    3.9601   -1.9236   -3.5346 H   0  0  0  0  0  0  0  0  0  0  0  0
   -4.1541    1.9571    2.1841 H   0  0  0  0  0  0  0  0  0  0  0  0
   -5.5690    1.2151    4.0555 H   0  0  0  0  0  0  0  0  0  0  0  0
   -6.0834   -1.1930    4.3590 H   0  0  0  0  0  0  0  0  0  0  0  0
   -5.1778   -2.8595    2.7917 H   0  0  0  0  0  0  0  0  0  0  0  0
   -4.6272    1.4882   -0.6637 H   0  0  0  0  0  0  0  0  0  0  0  0
    0.3566    1.8862   -3.0642 H   0  0  0  0  0  0  0  0  0  0  0  0
   -0.7543    3.3217   -4.6902 H   0  0  0  0  0  0  0  0  0  0  0  0
   -3.1827    3.7871   -4.5048 H   0  0  0  0  0  0  0  0  0  0  0  0
   -4.4812    2.8151   -2.6611 H   0  0  0  0  0  0  0  0  0  0  0  0
  2  3  1  0  0  0  0
  2  1  2  0  0  0  0
  3 48  1  0  0  0  0
  4  2  1  0  0  0  0
  5  4  1  0  0  0  0
  6  5  1  0  0  0  0
  6  7  1  0  0  0  0
  7  8  2  0  0  0  0
  7 17  1  0  0  0  0
  8 14  1  0  0  0  0
  9 10  1  0  0  0  0
  9  8  1  0  0  0  0
 10 11  1  0  0  0  0
 10 12  1  0  0  0  0
 13 10  1  0  0  0  0
 14 15  2  0  0  0  0
 15 50  1  0  0  0  0
 16 15  1  0  0  0  0
 16 51  1  0  0  0  0
 17 52  1  0  0  0  0
 17 16  2  0  0  0  0
 18  6  2  0  0  0  0
 19 20  1  0  0  0  0
 19 18  1  0  0  0  0
 20 25  1  0  0  0  0
 21 54  1  0  0  0  0
 21 20  2  0  0  0  0
 22 21  1  0  0  0  0
 23 22  2  0  0  0  0
 23 24  1  0  0  0  0
 24 19  2  0  0  0  0
 25 26  1  0  0  0  0
 25  5  2  0  0  0  0
 26 27  2  0  0  0  0
 27 29  1  0  0  0  0
 27 28  1  0  0  0  0
 28  2  1  0  0  0  0
 29 30  1  0  0  0  0
 30 35  2  0  0  0  0
 30 31  1  0  0  0  0
 31 32  2  0  0  0  0
 32 33  1  0  0  0  0
 32 59  1  0  0  0  0
 33 60  1  0  0  0  0
 34 61  1  0  0  0  0
 34 33  2  0  0  0  0
 35 34  1  0  0  0  0
 36 37  1  0  0  0  0
 36 35  1  0  0  0  0
 37 40  1  0  0  0  0
 37 39  1  0  0  0  0
 38 37  1  0  0  0  0
 41 62  1  0  0  0  0
 41 29  2  0  0  0  0
 42 41  1  0  0  0  0
 43 42  1  0  0  0  0
 43 26  1  0  0  0  0
 44 43  2  0  0  0  0
 45 46  2  0  0  0  0
 45 44  1  0  0  0  0
 46 47  1  0  0  0  0
 47 66  1  0  0  0  0
 47 42  2  0  0  0  0
 49 14  1  0  0  0  0
 53 18  1  0  0  0  0
 55 22  1  0  0  0  0
 56 23  1  0  0  0  0
 57 24  1  0  0  0  0
 58 31  1  0  0  0  0
 63 44  1  0  0  0  0
 64 45  1  0  0  0  0
 65 46  1  0  0  0  0
M  END
$$$$
