O=P1(O)OC2=C(C3=CC(C(C)(C)C)=CC(C(C)(C)C)=C3)C=C4C(C=CC=C4)=C2C5=C(O1)C(C6=CC(C(C)(C)C)=CC(C(C)(C)C)=C6)=CC7=C5C=CC=C7
 OpenBabel09032010383D

106112  0  0  0  0  0  0  0  0999 V2000
   -0.5936    1.8496    0.0433 O   0  0  0  0  0  0  0  0  0  0  0  0
    0.0391    0.4955    0.1172 P   0  0  0  0  0  0  0  0  0  0  0  0
    1.0136    0.3618    1.3908 O   0  0  0  0  0  0  0  0  0  0  0  0
   -0.9525   -0.7660    0.2648 O   0  0  0  0  0  0  0  0  0  0  0  0
   -1.5604   -1.2310   -0.8818 C   0  0  0  0  0  0  0  0  0  0  0  0
   -2.9500   -1.0508   -0.9836 C   0  0  0  0  0  0  0  0  0  0  0  0
   -3.7394   -0.3998    0.0701 C   0  0  0  0  0  0  0  0  0  0  0  0
   -4.4201   -1.1694    1.0243 C   0  0  0  0  0  0  0  0  0  0  0  0
   -5.1899   -0.5814    2.0433 C   0  0  0  0  0  0  0  0  0  0  0  0
   -5.9117   -1.4690    3.0727 C   0  0  0  0  0  0  0  0  0  0  0  0
   -6.7214   -0.6788    4.1257 C   0  0  0  0  0  0  0  0  0  0  0  0
   -6.9021   -2.4055    2.3469 C   0  0  0  0  0  0  0  0  0  0  0  0
   -4.8762   -2.3202    3.8395 C   0  0  0  0  0  0  0  0  0  0  0  0
   -5.2547    0.8235    2.0697 C   0  0  0  0  0  0  0  0  0  0  0  0
   -4.5900    1.6395    1.1270 C   0  0  0  0  0  0  0  0  0  0  0  0
   -4.6974    3.1729    1.2204 C   0  0  0  0  0  0  0  0  0  0  0  0
   -6.1799    3.5995    1.1428 C   0  0  0  0  0  0  0  0  0  0  0  0
   -4.0997    3.6494    2.5616 C   0  0  0  0  0  0  0  0  0  0  0  0
   -3.9523    3.9259    0.0946 C   0  0  0  0  0  0  0  0  0  0  0  0
   -3.8361    0.9973    0.1336 C   0  0  0  0  0  0  0  0  0  0  0  0
   -3.5911   -1.5242   -2.1290 C   0  0  0  0  0  0  0  0  0  0  0  0
   -2.8763   -2.1312   -3.1649 C   0  0  0  0  0  0  0  0  0  0  0  0
   -1.4725   -2.3184   -3.0502 C   0  0  0  0  0  0  0  0  0  0  0  0
   -0.8177   -2.8566   -4.1873 C   0  0  0  0  0  0  0  0  0  0  0  0
   -1.5076   -3.2469   -5.3382 C   0  0  0  0  0  0  0  0  0  0  0  0
   -2.8832   -3.0951   -5.4014 C   0  0  0  0  0  0  0  0  0  0  0  0
   -3.5615   -2.5348   -4.3232 C   0  0  0  0  0  0  0  0  0  0  0  0
   -0.7822   -1.9190   -1.8486 C   0  0  0  0  0  0  0  0  0  0  0  0
    0.6177   -2.1971   -1.5901 C   0  0  0  0  0  0  0  0  0  0  0  0
    1.4948   -1.1449   -1.2327 C   0  0  0  0  0  0  0  0  0  0  0  0
    1.0014    0.1364   -1.1231 O   0  0  0  0  0  0  0  0  0  0  0  0
    2.8785   -1.3025   -1.0354 C   0  0  0  0  0  0  0  0  0  0  0  0
    3.7442   -0.1761   -0.6495 C   0  0  0  0  0  0  0  0  0  0  0  0
    4.3256   -0.1359    0.6268 C   0  0  0  0  0  0  0  0  0  0  0  0
    5.1266    0.9390    1.0493 C   0  0  0  0  0  0  0  0  0  0  0  0
    5.7307    0.9382    2.4651 C   0  0  0  0  0  0  0  0  0  0  0  0
    4.5943    0.9020    3.5102 C   0  0  0  0  0  0  0  0  0  0  0  0
    6.5990    2.1779    2.7778 C   0  0  0  0  0  0  0  0  0  0  0  0
    6.6296   -0.3041    2.6473 C   0  0  0  0  0  0  0  0  0  0  0  0
    5.3308    1.9860    0.1330 C   0  0  0  0  0  0  0  0  0  0  0  0
    4.7704    1.9896   -1.1638 C   0  0  0  0  0  0  0  0  0  0  0  0
    5.0321    3.1730   -2.1146 C   0  0  0  0  0  0  0  0  0  0  0  0
    6.5490    3.3101   -2.3685 C   0  0  0  0  0  0  0  0  0  0  0  0
    4.5021    4.4764   -1.4784 C   0  0  0  0  0  0  0  0  0  0  0  0
    4.3506    3.0313   -3.4949 C   0  0  0  0  0  0  0  0  0  0  0  0
    3.9800    0.8900   -1.5300 C   0  0  0  0  0  0  0  0  0  0  0  0
    3.4177   -2.5798   -1.1882 C   0  0  0  0  0  0  0  0  0  0  0  0
    2.6089   -3.6800   -1.4868 C   0  0  0  0  0  0  0  0  0  0  0  0
    1.2082   -3.5124   -1.6645 C   0  0  0  0  0  0  0  0  0  0  0  0
    0.4572   -4.7006   -1.8539 C   0  0  0  0  0  0  0  0  0  0  0  0
    1.0518   -5.9628   -1.9375 C   0  0  0  0  0  0  0  0  0  0  0  0
    2.4258   -6.0872   -1.8133 C   0  0  0  0  0  0  0  0  0  0  0  0
    3.1974   -4.9526   -1.5811 C   0  0  0  0  0  0  0  0  0  0  0  0
    1.5787    1.1526    1.4631 H   0  0  0  0  0  0  0  0  0  0  0  0
   -4.3346   -2.2531    0.9661 H   0  0  0  0  0  0  0  0  0  0  0  0
   -7.2176   -1.3555    4.8319 H   0  0  0  0  0  0  0  0  0  0  0  0
   -7.5048   -0.0703    3.6589 H   0  0  0  0  0  0  0  0  0  0  0  0
   -6.0780   -0.0152    4.7152 H   0  0  0  0  0  0  0  0  0  0  0  0
   -7.6334   -1.8314    1.7655 H   0  0  0  0  0  0  0  0  0  0  0  0
   -6.3969   -3.0894    1.6562 H   0  0  0  0  0  0  0  0  0  0  0  0
   -7.4565   -3.0250    3.0616 H   0  0  0  0  0  0  0  0  0  0  0  0
   -4.1379   -1.6843    4.3423 H   0  0  0  0  0  0  0  0  0  0  0  0
   -4.3281   -3.0011    3.1792 H   0  0  0  0  0  0  0  0  0  0  0  0
   -5.3610   -2.9378    4.6047 H   0  0  0  0  0  0  0  0  0  0  0  0
   -5.8330    1.3160    2.8464 H   0  0  0  0  0  0  0  0  0  0  0  0
   -6.2788    4.6911    1.1658 H   0  0  0  0  0  0  0  0  0  0  0  0
   -6.6447    3.2419    0.2163 H   0  0  0  0  0  0  0  0  0  0  0  0
   -6.7702    3.2093    1.9789 H   0  0  0  0  0  0  0  0  0  0  0  0
   -4.1331    4.7421    2.6434 H   0  0  0  0  0  0  0  0  0  0  0  0
   -4.6426    3.2466    3.4238 H   0  0  0  0  0  0  0  0  0  0  0  0
   -3.0524    3.3394    2.6587 H   0  0  0  0  0  0  0  0  0  0  0  0
   -2.8761    3.7203    0.1139 H   0  0  0  0  0  0  0  0  0  0  0  0
   -4.3355    3.6528   -0.8955 H   0  0  0  0  0  0  0  0  0  0  0  0
   -4.0719    5.0110    0.1988 H   0  0  0  0  0  0  0  0  0  0  0  0
   -3.2940    1.5753   -0.6116 H   0  0  0  0  0  0  0  0  0  0  0  0
   -4.6684   -1.3865   -2.2196 H   0  0  0  0  0  0  0  0  0  0  0  0
    0.2650   -2.9693   -4.1985 H   0  0  0  0  0  0  0  0  0  0  0  0
   -0.9626   -3.6617   -6.1819 H   0  0  0  0  0  0  0  0  0  0  0  0
   -3.4273   -3.3935   -6.2928 H   0  0  0  0  0  0  0  0  0  0  0  0
   -4.6389   -2.4003   -4.4016 H   0  0  0  0  0  0  0  0  0  0  0  0
    4.1261   -0.9624    1.3083 H   0  0  0  0  0  0  0  0  0  0  0  0
    3.9183    1.7566    3.3874 H   0  0  0  0  0  0  0  0  0  0  0  0
    4.9943    0.9367    4.5304 H   0  0  0  0  0  0  0  0  0  0  0  0
    3.9895   -0.0083    3.4344 H   0  0  0  0  0  0  0  0  0  0  0  0
    7.4506    2.2573    2.0920 H   0  0  0  0  0  0  0  0  0  0  0  0
    6.0181    3.1052    2.7111 H   0  0  0  0  0  0  0  0  0  0  0  0
    7.0078    2.1276    3.7943 H   0  0  0  0  0  0  0  0  0  0  0  0
    7.4287   -0.3257    1.8968 H   0  0  0  0  0  0  0  0  0  0  0  0
    6.0680   -1.2402    2.5566 H   0  0  0  0  0  0  0  0  0  0  0  0
    7.1011   -0.3090    3.6370 H   0  0  0  0  0  0  0  0  0  0  0  0
    5.9446    2.8352    0.4218 H   0  0  0  0  0  0  0  0  0  0  0  0
    7.1059    3.5293   -1.4510 H   0  0  0  0  0  0  0  0  0  0  0  0
    6.7600    4.1237   -3.0724 H   0  0  0  0  0  0  0  0  0  0  0  0
    6.9627    2.3870   -2.7917 H   0  0  0  0  0  0  0  0  0  0  0  0
    4.6420    5.3302   -2.1517 H   0  0  0  0  0  0  0  0  0  0  0  0
    5.0156    4.7207   -0.5421 H   0  0  0  0  0  0  0  0  0  0  0  0
    3.4312    4.3991   -1.2556 H   0  0  0  0  0  0  0  0  0  0  0  0
    3.2603    2.9655   -3.4019 H   0  0  0  0  0  0  0  0  0  0  0  0
    4.7030    2.1415   -4.0296 H   0  0  0  0  0  0  0  0  0  0  0  0
    4.5671    3.8966   -4.1330 H   0  0  0  0  0  0  0  0  0  0  0  0
    3.5193    0.8395   -2.5139 H   0  0  0  0  0  0  0  0  0  0  0  0
    4.4893   -2.7174   -1.0468 H   0  0  0  0  0  0  0  0  0  0  0  0
   -0.6281   -4.6619   -1.9271 H   0  0  0  0  0  0  0  0  0  0  0  0
    0.4332   -6.8428   -2.0925 H   0  0  0  0  0  0  0  0  0  0  0  0
    2.8962   -7.0645   -1.8758 H   0  0  0  0  0  0  0  0  0  0  0  0
    4.2722   -5.0740   -1.4579 H   0  0  0  0  0  0  0  0  0  0  0  0
  1  2  2  0  0  0  0
  2  4  1  0  0  0  0
  2  3  1  0  0  0  0
  3 54  1  0  0  0  0
  5  4  1  0  0  0  0
  6  5  1  0  0  0  0
  6  7  1  0  0  0  0
  7 20  2  0  0  0  0
  7  8  1  0  0  0  0
  8  9  2  0  0  0  0
  9 14  1  0  0  0  0
  9 10  1  0  0  0  0
 10 13  1  0  0  0  0
 10 11  1  0  0  0  0
 11 58  1  0  0  0  0
 11 56  1  0  0  0  0
 12 61  1  0  0  0  0
 12 10  1  0  0  0  0
 13 62  1  0  0  0  0
 13 64  1  0  0  0  0
 14 65  1  0  0  0  0
 15 16  1  0  0  0  0
 15 14  2  0  0  0  0
 16 18  1  0  0  0  0
 17 66  1  0  0  0  0
 17 16  1  0  0  0  0
 17 68  1  0  0  0  0
 18 69  1  0  0  0  0
 18 71  1  0  0  0  0
 18 70  1  0  0  0  0
 19 72  1  0  0  0  0
 19 74  1  0  0  0  0
 19 16  1  0  0  0  0
 20 15  1  0  0  0  0
 21  6  2  0  0  0  0
 22 23  1  0  0  0  0
 22 21  1  0  0  0  0
 23 28  1  0  0  0  0
 24 23  2  0  0  0  0
 25 24  1  0  0  0  0
 26 25  2  0  0  0  0
 26 27  1  0  0  0  0
 27 22  2  0  0  0  0
 28 29  1  0  0  0  0
 28  5  2  0  0  0  0
 29 30  1  0  0  0  0
 30 31  1  0  0  0  0
 30 32  2  0  0  0  0
 31  2  1  0  0  0  0
 32 33  1  0  0  0  0
 33 34  2  0  0  0  0
 34 35  1  0  0  0  0
 34 81  1  0  0  0  0
 35 36  1  0  0  0  0
 36 39  1  0  0  0  0
 36 38  1  0  0  0  0
 36 37  1  0  0  0  0
 37 83  1  0  0  0  0
 38 87  1  0  0  0  0
 39 90  1  0  0  0  0
 40 91  1  0  0  0  0
 40 35  2  0  0  0  0
 41 40  1  0  0  0  0
 42 44  1  0  0  0  0
 42 41  1  0  0  0  0
 43 42  1  0  0  0  0
 43 92  1  0  0  0  0
 44 97  1  0  0  0  0
 44 96  1  0  0  0  0
 45 98  1  0  0  0  0
 45 42  1  0  0  0  0
 46 41  2  0  0  0  0
 46 33  1  0  0  0  0
 47102  1  0  0  0  0
 47 32  1  0  0  0  0
 48 47  2  0  0  0  0
 49 29  2  0  0  0  0
 49 48  1  0  0  0  0
 50 49  1  0  0  0  0
 51 50  2  0  0  0  0
 51 52  1  0  0  0  0
 52 53  2  0  0  0  0
 53 48  1  0  0  0  0
 53106  1  0  0  0  0
 55  8  1  0  0  0  0
 57 11  1  0  0  0  0
 59 12  1  0  0  0  0
 60 12  1  0  0  0  0
 63 13  1  0  0  0  0
 67 17  1  0  0  0  0
 73 19  1  0  0  0  0
 75 20  1  0  0  0  0
 76 21  1  0  0  0  0
 77 24  1  0  0  0  0
 78 25  1  0  0  0  0
 79 26  1  0  0  0  0
 80 27  1  0  0  0  0
 82 37  1  0  0  0  0
 84 37  1  0  0  0  0
 85 38  1  0  0  0  0
 86 38  1  0  0  0  0
 88 39  1  0  0  0  0
 89 39  1  0  0  0  0
 93 43  1  0  0  0  0
 94 43  1  0  0  0  0
 95 44  1  0  0  0  0
 99 45  1  0  0  0  0
100 45  1  0  0  0  0
101 46  1  0  0  0  0
103 50  1  0  0  0  0
104 51  1  0  0  0  0
105 52  1  0  0  0  0
M  END
$$$$
