O=P1(O)OC2=C(C3=C(OCC)C=CC(C)=C3)C=C4C(C=CC=C4)=C2C5=C(O1)C(C6=CC(C)=CC=C6OCC)=CC7=C5C=CC=C7
 OpenBabel09032010383D

 78 84  0  0  0  0  0  0  0  0999 V2000
   -1.0794   -1.4033   -2.7283 O   0  0  0  0  0  0  0  0  0  0  0  0
   -0.2588   -0.5751   -1.7892 P   0  0  0  0  0  0  0  0  0  0  0  0
    0.6409    0.4845   -2.6004 O   0  0  0  0  0  0  0  0  0  0  0  0
    0.8184   -1.4028   -0.9282 O   0  0  0  0  0  0  0  0  0  0  0  0
    1.4542   -0.7990    0.1350 C   0  0  0  0  0  0  0  0  0  0  0  0
    2.8481   -0.6224    0.0217 C   0  0  0  0  0  0  0  0  0  0  0  0
    3.6037   -0.9864   -1.1978 C   0  0  0  0  0  0  0  0  0  0  0  0
    4.4039   -0.0648   -1.9004 C   0  0  0  0  0  0  0  0  0  0  0  0
    4.5680    1.2330   -1.4801 O   0  0  0  0  0  0  0  0  0  0  0  0
    3.4854    2.0585   -1.9264 C   0  0  0  0  0  0  0  0  0  0  0  0
    3.8904    3.5068   -1.7225 C   0  0  0  0  0  0  0  0  0  0  0  0
    5.1471   -0.4520   -3.0192 C   0  0  0  0  0  0  0  0  0  0  0  0
    5.0760   -1.7621   -3.4876 C   0  0  0  0  0  0  0  0  0  0  0  0
    4.2704   -2.6978   -2.8343 C   0  0  0  0  0  0  0  0  0  0  0  0
    4.2221   -4.1221   -3.3033 C   0  0  0  0  0  0  0  0  0  0  0  0
    3.5598   -2.3070   -1.6879 C   0  0  0  0  0  0  0  0  0  0  0  0
    3.5177   -0.0673    1.1152 C   0  0  0  0  0  0  0  0  0  0  0  0
    2.8361    0.3516    2.2605 C   0  0  0  0  0  0  0  0  0  0  0  0
    1.4297    0.1835    2.3558 C   0  0  0  0  0  0  0  0  0  0  0  0
    0.8127    0.7361    3.5083 C   0  0  0  0  0  0  0  0  0  0  0  0
    1.5398    1.3495    4.5323 C   0  0  0  0  0  0  0  0  0  0  0  0
    2.9173    1.4518    4.4326 C   0  0  0  0  0  0  0  0  0  0  0  0
    3.5592    0.9624    3.2992 C   0  0  0  0  0  0  0  0  0  0  0  0
    0.7034   -0.4674    1.2935 C   0  0  0  0  0  0  0  0  0  0  0  0
   -0.7115   -0.7723    1.3700 C   0  0  0  0  0  0  0  0  0  0  0  0
   -1.5919   -0.3050    0.3631 C   0  0  0  0  0  0  0  0  0  0  0  0
   -1.0695    0.3371   -0.7385 O   0  0  0  0  0  0  0  0  0  0  0  0
   -2.9911   -0.3959    0.4484 C   0  0  0  0  0  0  0  0  0  0  0  0
   -3.8823    0.1979   -0.5597 C   0  0  0  0  0  0  0  0  0  0  0  0
   -4.1669   -0.4902   -1.7507 C   0  0  0  0  0  0  0  0  0  0  0  0
   -5.0287    0.0502   -2.7179 C   0  0  0  0  0  0  0  0  0  0  0  0
   -5.2793   -0.6888   -3.9993 C   0  0  0  0  0  0  0  0  0  0  0  0
   -5.6052    1.3057   -2.4956 C   0  0  0  0  0  0  0  0  0  0  0  0
   -5.3388    2.0039   -1.3186 C   0  0  0  0  0  0  0  0  0  0  0  0
   -4.4736    1.4582   -0.3690 C   0  0  0  0  0  0  0  0  0  0  0  0
   -4.2498    2.1499    0.7960 O   0  0  0  0  0  0  0  0  0  0  0  0
   -3.2600    3.1651    0.5903 C   0  0  0  0  0  0  0  0  0  0  0  0
   -2.6725    3.5252    1.9423 C   0  0  0  0  0  0  0  0  0  0  0  0
   -3.5396   -1.0489    1.5531 C   0  0  0  0  0  0  0  0  0  0  0  0
   -2.7303   -1.6242    2.5359 C   0  0  0  0  0  0  0  0  0  0  0  0
   -1.3171   -1.5109    2.4506 C   0  0  0  0  0  0  0  0  0  0  0  0
   -0.5723   -2.1946    3.4452 C   0  0  0  0  0  0  0  0  0  0  0  0
   -1.1801   -2.8925    4.4926 C   0  0  0  0  0  0  0  0  0  0  0  0
   -2.5622   -2.9465    4.5749 C   0  0  0  0  0  0  0  0  0  0  0  0
   -3.3315   -2.3204    3.5985 C   0  0  0  0  0  0  0  0  0  0  0  0
    0.9333    0.0848   -3.4400 H   0  0  0  0  0  0  0  0  0  0  0  0
    2.5871    1.8543   -1.3358 H   0  0  0  0  0  0  0  0  0  0  0  0
    3.2712    1.8876   -2.9886 H   0  0  0  0  0  0  0  0  0  0  0  0
    4.7981    3.7366   -2.2901 H   0  0  0  0  0  0  0  0  0  0  0  0
    3.0928    4.1833   -2.0422 H   0  0  0  0  0  0  0  0  0  0  0  0
    4.1157    3.6990   -0.6682 H   0  0  0  0  0  0  0  0  0  0  0  0
    5.7868    0.2701   -3.5193 H   0  0  0  0  0  0  0  0  0  0  0  0
    5.6625   -2.0498   -4.3570 H   0  0  0  0  0  0  0  0  0  0  0  0
    4.9884   -4.7112   -2.7904 H   0  0  0  0  0  0  0  0  0  0  0  0
    3.2405   -4.5647   -3.1036 H   0  0  0  0  0  0  0  0  0  0  0  0
    4.3921   -4.1842   -4.3833 H   0  0  0  0  0  0  0  0  0  0  0  0
    2.9659   -3.0514   -1.1575 H   0  0  0  0  0  0  0  0  0  0  0  0
    4.5974    0.0714    1.0517 H   0  0  0  0  0  0  0  0  0  0  0  0
   -0.2697    0.7086    3.6227 H   0  0  0  0  0  0  0  0  0  0  0  0
    1.0210    1.7490    5.3996 H   0  0  0  0  0  0  0  0  0  0  0  0
    3.4913    1.9273    5.2229 H   0  0  0  0  0  0  0  0  0  0  0  0
    4.6393    1.0772    3.2247 H   0  0  0  0  0  0  0  0  0  0  0  0
   -3.7054   -1.4610   -1.9299 H   0  0  0  0  0  0  0  0  0  0  0  0
   -4.5048   -0.4404   -4.7314 H   0  0  0  0  0  0  0  0  0  0  0  0
   -6.2572   -0.4281   -4.4174 H   0  0  0  0  0  0  0  0  0  0  0  0
   -5.2761   -1.7710   -3.8318 H   0  0  0  0  0  0  0  0  0  0  0  0
   -6.2695    1.7446   -3.2362 H   0  0  0  0  0  0  0  0  0  0  0  0
   -5.8045    2.9682   -1.1402 H   0  0  0  0  0  0  0  0  0  0  0  0
   -3.7350    4.0478    0.1470 H   0  0  0  0  0  0  0  0  0  0  0  0
   -2.4549    2.8226   -0.0718 H   0  0  0  0  0  0  0  0  0  0  0  0
   -1.9187    4.3112    1.8432 H   0  0  0  0  0  0  0  0  0  0  0  0
   -3.4563    3.8703    2.6246 H   0  0  0  0  0  0  0  0  0  0  0  0
   -2.2091    2.6479    2.4061 H   0  0  0  0  0  0  0  0  0  0  0  0
   -4.6242   -1.1179    1.6322 H   0  0  0  0  0  0  0  0  0  0  0  0
    0.5158   -2.2025    3.4111 H   0  0  0  0  0  0  0  0  0  0  0  0
   -0.5667   -3.3941    5.2362 H   0  0  0  0  0  0  0  0  0  0  0  0
   -3.0431   -3.4859    5.3862 H   0  0  0  0  0  0  0  0  0  0  0  0
   -4.4157   -2.3906    3.6670 H   0  0  0  0  0  0  0  0  0  0  0  0
  1  2  2  0  0  0  0
  2  4  1  0  0  0  0
  2 27  1  0  0  0  0
  3  2  1  0  0  0  0
  4  5  1  0  0  0  0
  5 24  1  0  0  0  0
  6  5  2  0  0  0  0
  6 17  1  0  0  0  0
  7  6  1  0  0  0  0
  8  9  1  0  0  0  0
  8  7  2  0  0  0  0
 10 11  1  0  0  0  0
 10  9  1  0  0  0  0
 10 47  1  0  0  0  0
 11 51  1  0  0  0  0
 12  8  1  0  0  0  0
 13 12  2  0  0  0  0
 13 14  1  0  0  0  0
 14 16  2  0  0  0  0
 15 55  1  0  0  0  0
 15 14  1  0  0  0  0
 15 54  1  0  0  0  0
 16  7  1  0  0  0  0
 16 57  1  0  0  0  0
 17 18  2  0  0  0  0
 18 19  1  0  0  0  0
 18 23  1  0  0  0  0
 19 20  1  0  0  0  0
 20 59  1  0  0  0  0
 20 21  2  0  0  0  0
 21 60  1  0  0  0  0
 22 21  1  0  0  0  0
 22 61  1  0  0  0  0
 23 22  2  0  0  0  0
 24 25  1  0  0  0  0
 24 19  2  0  0  0  0
 25 41  2  0  0  0  0
 26 28  2  0  0  0  0
 26 25  1  0  0  0  0
 27 26  1  0  0  0  0
 28 39  1  0  0  0  0
 29 35  1  0  0  0  0
 29 28  1  0  0  0  0
 30 29  2  0  0  0  0
 31 33  2  0  0  0  0
 31 30  1  0  0  0  0
 32 66  1  0  0  0  0
 32 31  1  0  0  0  0
 33 34  1  0  0  0  0
 34 68  1  0  0  0  0
 34 35  2  0  0  0  0
 35 36  1  0  0  0  0
 37 36  1  0  0  0  0
 37 38  1  0  0  0  0
 38 73  1  0  0  0  0
 38 72  1  0  0  0  0
 39 74  1  0  0  0  0
 39 40  2  0  0  0  0
 40 45  1  0  0  0  0
 41 40  1  0  0  0  0
 41 42  1  0  0  0  0
 42 43  2  0  0  0  0
 43 44  1  0  0  0  0
 43 76  1  0  0  0  0
 44 77  1  0  0  0  0
 45 78  1  0  0  0  0
 45 44  2  0  0  0  0
 46  3  1  0  0  0  0
 48 10  1  0  0  0  0
 49 11  1  0  0  0  0
 50 11  1  0  0  0  0
 52 12  1  0  0  0  0
 53 13  1  0  0  0  0
 56 15  1  0  0  0  0
 58 17  1  0  0  0  0
 62 23  1  0  0  0  0
 63 30  1  0  0  0  0
 64 32  1  0  0  0  0
 65 32  1  0  0  0  0
 67 33  1  0  0  0  0
 69 37  1  0  0  0  0
 70 37  1  0  0  0  0
 71 38  1  0  0  0  0
 75 42  1  0  0  0  0
M  END
$$$$
