O=P1(O)OC2=C([Si](C3=CC=C(C(C)(C)C)C=C3)(C4=CC=C(C(C)(C)C)C=C4)C5=CC=C(C(C)(C)C)C=C5)C=C6C(CCCC6)=C2C7=C(O1)C([Si](C8=CC=C(C(C)(C)C)C=C8)(C9=CC=C(C(C)(C)C)C=C9)C%10=CC=C(C(C)(C)C)C=C%10)=CC%11=C7CCCC%11
 OpenBabel09032010373D

184194  0  0  0  0  0  0  0  0999 V2000
   -0.2956   -1.9027    1.2928 O   0  0  0  0  0  0  0  0  0  0  0  0
    0.1222   -0.7387    0.4466 P   0  0  0  0  0  0  0  0  0  0  0  0
    0.4086   -1.1819   -1.0690 O   0  0  0  0  0  0  0  0  0  0  0  0
   -0.9842    0.4248    0.2684 O   0  0  0  0  0  0  0  0  0  0  0  0
   -1.2925    1.1259    1.4045 C   0  0  0  0  0  0  0  0  0  0  0  0
   -2.5539    0.9278    1.9970 C   0  0  0  0  0  0  0  0  0  0  0  0
   -3.9385   -0.1145    1.2698 Si  0  0  0  0  0  0  0  0  0  0  0  0
   -4.4538   -1.2910    2.6280 C   0  0  0  0  0  0  0  0  0  0  0  0
   -5.7856   -1.4406    3.0394 C   0  0  0  0  0  0  0  0  0  0  0  0
   -6.1342   -2.3291    4.0664 C   0  0  0  0  0  0  0  0  0  0  0  0
   -5.1719   -3.1068    4.7332 C   0  0  0  0  0  0  0  0  0  0  0  0
   -5.5953   -4.0728    5.8519 C   0  0  0  0  0  0  0  0  0  0  0  0
   -6.2747   -3.2821    6.9907 C   0  0  0  0  0  0  0  0  0  0  0  0
   -4.4193   -4.8565    6.4777 C   0  0  0  0  0  0  0  0  0  0  0  0
   -6.5897   -5.1127    5.2919 C   0  0  0  0  0  0  0  0  0  0  0  0
   -3.8402   -2.9494    4.3287 C   0  0  0  0  0  0  0  0  0  0  0  0
   -3.4885   -2.0595    3.3046 C   0  0  0  0  0  0  0  0  0  0  0  0
   -3.4178   -1.0669   -0.2525 C   0  0  0  0  0  0  0  0  0  0  0  0
   -3.1508   -2.4445   -0.2310 C   0  0  0  0  0  0  0  0  0  0  0  0
   -2.7253   -3.1317   -1.3790 C   0  0  0  0  0  0  0  0  0  0  0  0
   -2.5532   -2.4760   -2.6048 C   0  0  0  0  0  0  0  0  0  0  0  0
   -2.0850   -3.1964   -3.8802 C   0  0  0  0  0  0  0  0  0  0  0  0
   -3.1755   -3.0827   -4.9672 C   0  0  0  0  0  0  0  0  0  0  0  0
   -0.7832   -2.5495   -4.4001 C   0  0  0  0  0  0  0  0  0  0  0  0
   -1.7959   -4.7006   -3.6758 C   0  0  0  0  0  0  0  0  0  0  0  0
   -2.8386   -1.1012   -2.6332 C   0  0  0  0  0  0  0  0  0  0  0  0
   -3.2659   -0.4141   -1.4890 C   0  0  0  0  0  0  0  0  0  0  0  0
   -5.3783    0.9687    0.7629 C   0  0  0  0  0  0  0  0  0  0  0  0
   -6.4725    0.4234    0.0644 C   0  0  0  0  0  0  0  0  0  0  0  0
   -7.5649    1.2116   -0.3278 C   0  0  0  0  0  0  0  0  0  0  0  0
   -7.6117    2.5833   -0.0484 C   0  0  0  0  0  0  0  0  0  0  0  0
   -8.7917    3.4791   -0.4615 C   0  0  0  0  0  0  0  0  0  0  0  0
   -9.4174    4.1255    0.7934 C   0  0  0  0  0  0  0  0  0  0  0  0
   -8.2921    4.5904   -1.4097 C   0  0  0  0  0  0  0  0  0  0  0  0
   -9.9218    2.7240   -1.1973 C   0  0  0  0  0  0  0  0  0  0  0  0
   -6.5125    3.1302    0.6356 C   0  0  0  0  0  0  0  0  0  0  0  0
   -5.4202    2.3446    1.0302 C   0  0  0  0  0  0  0  0  0  0  0  0
   -2.7533    1.5473    3.2435 C   0  0  0  0  0  0  0  0  0  0  0  0
   -1.7527    2.3092    3.8687 C   0  0  0  0  0  0  0  0  0  0  0  0
   -0.5132    2.5093    3.2225 C   0  0  0  0  0  0  0  0  0  0  0  0
    0.6080    3.2315    3.9578 C   0  0  0  0  0  0  0  0  0  0  0  0
    0.4024    3.3131    5.4693 C   0  0  0  0  0  0  0  0  0  0  0  0
   -0.9979    3.8197    5.7722 C   0  0  0  0  0  0  0  0  0  0  0  0
   -2.0320    2.8228    5.2631 C   0  0  0  0  0  0  0  0  0  0  0  0
   -0.2891    1.9898    1.9121 C   0  0  0  0  0  0  0  0  0  0  0  0
    0.8667    2.3129    1.1065 C   0  0  0  0  0  0  0  0  0  0  0  0
    1.7356    1.3031    0.5859 C   0  0  0  0  0  0  0  0  0  0  0  0
    1.4767   -0.0080    0.9078 O   0  0  0  0  0  0  0  0  0  0  0  0
    2.9045    1.5692   -0.1644 C   0  0  0  0  0  0  0  0  0  0  0  0
    3.9879    0.2566   -0.9678 Si  0  0  0  0  0  0  0  0  0  0  0  0
    3.4469    0.0925   -2.7631 C   0  0  0  0  0  0  0  0  0  0  0  0
    2.1897    0.5356   -3.2029 C   0  0  0  0  0  0  0  0  0  0  0  0
    1.7960    0.4129   -4.5433 C   0  0  0  0  0  0  0  0  0  0  0  0
    2.6384   -0.1604   -5.5044 C   0  0  0  0  0  0  0  0  0  0  0  0
    2.2402   -0.3051   -6.9819 C   0  0  0  0  0  0  0  0  0  0  0  0
    0.8220    0.2189   -7.3022 C   0  0  0  0  0  0  0  0  0  0  0  0
    2.2790   -1.7939   -7.3896 C   0  0  0  0  0  0  0  0  0  0  0  0
    3.2295    0.4877   -7.8635 C   0  0  0  0  0  0  0  0  0  0  0  0
    3.8950   -0.6082   -5.0628 C   0  0  0  0  0  0  0  0  0  0  0  0
    4.2918   -0.4868   -3.7253 C   0  0  0  0  0  0  0  0  0  0  0  0
    3.8946   -1.4015   -0.1330 C   0  0  0  0  0  0  0  0  0  0  0  0
    3.6559   -2.5863   -0.8502 C   0  0  0  0  0  0  0  0  0  0  0  0
    3.5600   -3.8313   -0.2111 C   0  0  0  0  0  0  0  0  0  0  0  0
    3.6878   -3.9492    1.1778 C   0  0  0  0  0  0  0  0  0  0  0  0
    3.5695   -5.2936    1.9145 C   0  0  0  0  0  0  0  0  0  0  0  0
    3.3020   -6.4966    0.9817 C   0  0  0  0  0  0  0  0  0  0  0  0
    2.4028   -5.2313    2.9241 C   0  0  0  0  0  0  0  0  0  0  0  0
    4.8820   -5.5880    2.6728 C   0  0  0  0  0  0  0  0  0  0  0  0
    3.9334   -2.7686    1.8977 C   0  0  0  0  0  0  0  0  0  0  0  0
    4.0384   -1.5266    1.2594 C   0  0  0  0  0  0  0  0  0  0  0  0
    5.7690    0.8640   -0.9827 C   0  0  0  0  0  0  0  0  0  0  0  0
    6.7043    0.4638   -0.0164 C   0  0  0  0  0  0  0  0  0  0  0  0
    8.0297    0.9264   -0.0383 C   0  0  0  0  0  0  0  0  0  0  0  0
    8.4833    1.8106   -1.0258 C   0  0  0  0  0  0  0  0  0  0  0  0
    9.9276    2.3348   -1.0775 C   0  0  0  0  0  0  0  0  0  0  0  0
   10.5838    1.9181   -2.4115 C   0  0  0  0  0  0  0  0  0  0  0  0
   10.8269    1.8012    0.0605 C   0  0  0  0  0  0  0  0  0  0  0  0
    9.9249    3.8753   -0.9724 C   0  0  0  0  0  0  0  0  0  0  0  0
    7.5495    2.2110   -1.9948 C   0  0  0  0  0  0  0  0  0  0  0  0
    6.2269    1.7500   -1.9753 C   0  0  0  0  0  0  0  0  0  0  0  0
    3.2060    2.9221   -0.3887 C   0  0  0  0  0  0  0  0  0  0  0  0
    2.3552    3.9564    0.0233 C   0  0  0  0  0  0  0  0  0  0  0  0
    1.1738    3.6580    0.7388 C   0  0  0  0  0  0  0  0  0  0  0  0
    0.1358    4.7667    0.8899 C   0  0  0  0  0  0  0  0  0  0  0  0
    0.7295    6.1724    0.8929 C   0  0  0  0  0  0  0  0  0  0  0  0
    1.6109    6.3632   -0.3287 C   0  0  0  0  0  0  0  0  0  0  0  0
    2.7691    5.3756   -0.2985 C   0  0  0  0  0  0  0  0  0  0  0  0
   -0.1725   -1.9343   -1.2882 H   0  0  0  0  0  0  0  0  0  0  0  0
   -6.5894   -0.8681    2.5798 H   0  0  0  0  0  0  0  0  0  0  0  0
   -7.1855   -2.3999    4.3379 H   0  0  0  0  0  0  0  0  0  0  0  0
   -7.1893   -2.7792    6.6577 H   0  0  0  0  0  0  0  0  0  0  0  0
   -6.5562   -3.9439    7.8182 H   0  0  0  0  0  0  0  0  0  0  0  0
   -5.6039   -2.5131    7.3919 H   0  0  0  0  0  0  0  0  0  0  0  0
   -4.7703   -5.5317    7.2674 H   0  0  0  0  0  0  0  0  0  0  0  0
   -3.9035   -5.4731    5.7325 H   0  0  0  0  0  0  0  0  0  0  0  0
   -3.6831   -4.1840    6.9333 H   0  0  0  0  0  0  0  0  0  0  0  0
   -6.1481   -5.6720    4.4585 H   0  0  0  0  0  0  0  0  0  0  0  0
   -7.5116   -4.6487    4.9244 H   0  0  0  0  0  0  0  0  0  0  0  0
   -6.8807   -5.8364    6.0623 H   0  0  0  0  0  0  0  0  0  0  0  0
   -3.0323   -3.5098    4.7913 H   0  0  0  0  0  0  0  0  0  0  0  0
   -2.4310   -1.9846    3.0421 H   0  0  0  0  0  0  0  0  0  0  0  0
   -3.2551   -3.0241    0.6855 H   0  0  0  0  0  0  0  0  0  0  0  0
   -2.5364   -4.1970   -1.2722 H   0  0  0  0  0  0  0  0  0  0  0  0
   -3.3666   -2.0429   -5.2546 H   0  0  0  0  0  0  0  0  0  0  0  0
   -4.1246   -3.5080   -4.6201 H   0  0  0  0  0  0  0  0  0  0  0  0
   -2.8832   -3.6185   -5.8780 H   0  0  0  0  0  0  0  0  0  0  0  0
   -0.4228   -3.0588   -5.3013 H   0  0  0  0  0  0  0  0  0  0  0  0
   -0.9209   -1.4952   -4.6616 H   0  0  0  0  0  0  0  0  0  0  0  0
    0.0130   -2.6015   -3.6486 H   0  0  0  0  0  0  0  0  0  0  0  0
   -1.0068   -4.8618   -2.9320 H   0  0  0  0  0  0  0  0  0  0  0  0
   -2.6904   -5.2428   -3.3478 H   0  0  0  0  0  0  0  0  0  0  0  0
   -1.4603   -5.1688   -4.6089 H   0  0  0  0  0  0  0  0  0  0  0  0
   -2.7311   -0.5316   -3.5545 H   0  0  0  0  0  0  0  0  0  0  0  0
   -3.4607    0.6552   -1.5817 H   0  0  0  0  0  0  0  0  0  0  0  0
   -6.4950   -0.6371   -0.1909 H   0  0  0  0  0  0  0  0  0  0  0  0
   -8.3726    0.7143   -0.8591 H   0  0  0  0  0  0  0  0  0  0  0  0
  -10.2842    4.7427    0.5298 H   0  0  0  0  0  0  0  0  0  0  0  0
   -9.7555    3.3615    1.5036 H   0  0  0  0  0  0  0  0  0  0  0  0
   -8.7108    4.7753    1.3213 H   0  0  0  0  0  0  0  0  0  0  0  0
   -9.1206    5.2241   -1.7472 H   0  0  0  0  0  0  0  0  0  0  0  0
   -7.5611    5.2488   -0.9277 H   0  0  0  0  0  0  0  0  0  0  0  0
   -7.8142    4.1641   -2.2998 H   0  0  0  0  0  0  0  0  0  0  0  0
  -10.3528    1.9337   -0.5717 H   0  0  0  0  0  0  0  0  0  0  0  0
  -10.7396    3.4028   -1.4677 H   0  0  0  0  0  0  0  0  0  0  0  0
   -9.5631    2.2667   -2.1268 H   0  0  0  0  0  0  0  0  0  0  0  0
   -6.4840    4.1916    0.8741 H   0  0  0  0  0  0  0  0  0  0  0  0
   -4.6045    2.8476    1.5464 H   0  0  0  0  0  0  0  0  0  0  0  0
   -3.6968    1.4074    3.7767 H   0  0  0  0  0  0  0  0  0  0  0  0
    0.6999    4.2520    3.5742 H   0  0  0  0  0  0  0  0  0  0  0  0
    1.5603    2.7187    3.7776 H   0  0  0  0  0  0  0  0  0  0  0  0
    0.5495    2.3256    5.9247 H   0  0  0  0  0  0  0  0  0  0  0  0
    1.1505    3.9841    5.9061 H   0  0  0  0  0  0  0  0  0  0  0  0
   -1.1259    3.9668    6.8504 H   0  0  0  0  0  0  0  0  0  0  0  0
   -1.1500    4.7957    5.2941 H   0  0  0  0  0  0  0  0  0  0  0  0
   -3.0212    3.2955    5.2919 H   0  0  0  0  0  0  0  0  0  0  0  0
   -2.0584    1.9593    5.9402 H   0  0  0  0  0  0  0  0  0  0  0  0
    1.4765    0.9800   -2.5095 H   0  0  0  0  0  0  0  0  0  0  0  0
    0.8073    0.7800   -4.8027 H   0  0  0  0  0  0  0  0  0  0  0  0
    0.0546   -0.3213   -6.7363 H   0  0  0  0  0  0  0  0  0  0  0  0
    0.7253    1.2870   -7.0752 H   0  0  0  0  0  0  0  0  0  0  0  0
    0.5854    0.0937   -8.3657 H   0  0  0  0  0  0  0  0  0  0  0  0
    1.9604   -1.9273   -8.4301 H   0  0  0  0  0  0  0  0  0  0  0  0
    3.2843   -2.2209   -7.3062 H   0  0  0  0  0  0  0  0  0  0  0  0
    1.6138   -2.3936   -6.7577 H   0  0  0  0  0  0  0  0  0  0  0  0
    4.2539    0.1082   -7.7807 H   0  0  0  0  0  0  0  0  0  0  0  0
    3.2475    1.5471   -7.5815 H   0  0  0  0  0  0  0  0  0  0  0  0
    2.9504    0.4289   -8.9220 H   0  0  0  0  0  0  0  0  0  0  0  0
    4.5951   -1.0636   -5.7598 H   0  0  0  0  0  0  0  0  0  0  0  0
    5.2797   -0.8574   -3.4498 H   0  0  0  0  0  0  0  0  0  0  0  0
    3.5202   -2.5717   -1.9306 H   0  0  0  0  0  0  0  0  0  0  0  0
    3.3767   -4.7004   -0.8380 H   0  0  0  0  0  0  0  0  0  0  0  0
    2.3615   -6.3789    0.4309 H   0  0  0  0  0  0  0  0  0  0  0  0
    3.2259   -7.4299    1.5526 H   0  0  0  0  0  0  0  0  0  0  0  0
    4.1104   -6.6301    0.2533 H   0  0  0  0  0  0  0  0  0  0  0  0
    2.5637   -4.4722    3.6973 H   0  0  0  0  0  0  0  0  0  0  0  0
    2.2740   -6.1905    3.4391 H   0  0  0  0  0  0  0  0  0  0  0  0
    1.4581   -4.9933    2.4208 H   0  0  0  0  0  0  0  0  0  0  0  0
    5.0946   -4.8365    3.4411 H   0  0  0  0  0  0  0  0  0  0  0  0
    5.7375   -5.6086    1.9872 H   0  0  0  0  0  0  0  0  0  0  0  0
    4.8368   -6.5593    3.1790 H   0  0  0  0  0  0  0  0  0  0  0  0
    4.0371   -2.7936    2.9804 H   0  0  0  0  0  0  0  0  0  0  0  0
    4.2092   -0.6490    1.8834 H   0  0  0  0  0  0  0  0  0  0  0  0
    6.4336   -0.2262    0.7800 H   0  0  0  0  0  0  0  0  0  0  0  0
    8.6910    0.5653    0.7449 H   0  0  0  0  0  0  0  0  0  0  0  0
   10.0705    2.3487   -3.2783 H   0  0  0  0  0  0  0  0  0  0  0  0
   10.5749    0.8282   -2.5319 H   0  0  0  0  0  0  0  0  0  0  0  0
   11.6274    2.2505   -2.4596 H   0  0  0  0  0  0  0  0  0  0  0  0
   10.4430    2.0880    1.0464 H   0  0  0  0  0  0  0  0  0  0  0  0
   11.8442    2.2033   -0.0183 H   0  0  0  0  0  0  0  0  0  0  0  0
   10.9098    0.7085    0.0306 H   0  0  0  0  0  0  0  0  0  0  0  0
    9.3985    4.3471   -1.8093 H   0  0  0  0  0  0  0  0  0  0  0  0
    9.4371    4.2068   -0.0480 H   0  0  0  0  0  0  0  0  0  0  0  0
   10.9465    4.2733   -0.9717 H   0  0  0  0  0  0  0  0  0  0  0  0
    7.8371    2.8944   -2.7910 H   0  0  0  0  0  0  0  0  0  0  0  0
    5.5582    2.1031   -2.7609 H   0  0  0  0  0  0  0  0  0  0  0  0
    4.1022    3.2027   -0.9418 H   0  0  0  0  0  0  0  0  0  0  0  0
   -0.4696    4.6665    1.7905 H   0  0  0  0  0  0  0  0  0  0  0  0
   -0.5575    4.6740    0.0428 H   0  0  0  0  0  0  0  0  0  0  0  0
    1.3143    6.3339    1.8070 H   0  0  0  0  0  0  0  0  0  0  0  0
   -0.0785    6.9126    0.8892 H   0  0  0  0  0  0  0  0  0  0  0  0
    1.9980    7.3876   -0.3625 H   0  0  0  0  0  0  0  0  0  0  0  0
    1.0167    6.2140   -1.2392 H   0  0  0  0  0  0  0  0  0  0  0  0
    3.4964    5.6908    0.4605 H   0  0  0  0  0  0  0  0  0  0  0  0
    3.2766    5.4094   -1.2704 H   0  0  0  0  0  0  0  0  0  0  0  0
  2 48  1  0  0  0  0
  2  1  2  0  0  0  0
  3  2  1  0  0  0  0
  4  2  1  0  0  0  0
  4  5  1  0  0  0  0
  5 45  2  0  0  0  0
  5  6  1  0  0  0  0
  6 38  2  0  0  0  0
  7  6  1  0  0  0  0
  7  8  1  0  0  0  0
  8  9  2  0  0  0  0
  8 17  1  0  0  0  0
  9 10  1  0  0  0  0
 10 90  1  0  0  0  0
 10 11  2  0  0  0  0
 11 12  1  0  0  0  0
 12 14  1  0  0  0  0
 12 13  1  0  0  0  0
 13 93  1  0  0  0  0
 13 92  1  0  0  0  0
 14 96  1  0  0  0  0
 14 94  1  0  0  0  0
 15 12  1  0  0  0  0
 15 99  1  0  0  0  0
 16 11  1  0  0  0  0
 16100  1  0  0  0  0
 17 16  2  0  0  0  0
 18 19  1  0  0  0  0
 18  7  1  0  0  0  0
 19102  1  0  0  0  0
 20103  1  0  0  0  0
 20 19  2  0  0  0  0
 21 20  1  0  0  0  0
 22 25  1  0  0  0  0
 22 21  1  0  0  0  0
 23105  1  0  0  0  0
 23 22  1  0  0  0  0
 24 22  1  0  0  0  0
 24109  1  0  0  0  0
 25111  1  0  0  0  0
 25110  1  0  0  0  0
 26 21  2  0  0  0  0
 26 27  1  0  0  0  0
 27 18  2  0  0  0  0
 28 37  1  0  0  0  0
 28  7  1  0  0  0  0
 29 28  2  0  0  0  0
 30 31  2  0  0  0  0
 30 29  1  0  0  0  0
 31 36  1  0  0  0  0
 32 31  1  0  0  0  0
 32 33  1  0  0  0  0
 33119  1  0  0  0  0
 33118  1  0  0  0  0
 34121  1  0  0  0  0
 34 32  1  0  0  0  0
 35123  1  0  0  0  0
 35 32  1  0  0  0  0
 36126  1  0  0  0  0
 36 37  2  0  0  0  0
 37127  1  0  0  0  0
 38128  1  0  0  0  0
 38 39  1  0  0  0  0
 39 44  1  0  0  0  0
 40 39  2  0  0  0  0
 40 41  1  0  0  0  0
 41 42  1  0  0  0  0
 42 43  1  0  0  0  0
 42132  1  0  0  0  0
 42131  1  0  0  0  0
 43133  1  0  0  0  0
 44135  1  0  0  0  0
 44 43  1  0  0  0  0
 44136  1  0  0  0  0
 45 40  1  0  0  0  0
 46 45  1  0  0  0  0
 47 48  1  0  0  0  0
 47 46  2  0  0  0  0
 49 47  1  0  0  0  0
 50 49  1  0  0  0  0
 50 61  1  0  0  0  0
 51 50  1  0  0  0  0
 52 51  1  0  0  0  0
 52137  1  0  0  0  0
 53 52  2  0  0  0  0
 54 59  2  0  0  0  0
 54 53  1  0  0  0  0
 55 54  1  0  0  0  0
 56140  1  0  0  0  0
 56 55  1  0  0  0  0
 56139  1  0  0  0  0
 57143  1  0  0  0  0
 57 55  1  0  0  0  0
 57144  1  0  0  0  0
 58145  1  0  0  0  0
 58146  1  0  0  0  0
 58 55  1  0  0  0  0
 59 60  1  0  0  0  0
 60149  1  0  0  0  0
 60 51  2  0  0  0  0
 61 70  2  0  0  0  0
 62 63  2  0  0  0  0
 62 61  1  0  0  0  0
 63 64  1  0  0  0  0
 64 69  2  0  0  0  0
 64 65  1  0  0  0  0
 65 68  1  0  0  0  0
 65 67  1  0  0  0  0
 66153  1  0  0  0  0
 66 65  1  0  0  0  0
 67156  1  0  0  0  0
 67155  1  0  0  0  0
 68160  1  0  0  0  0
 68158  1  0  0  0  0
 69161  1  0  0  0  0
 70162  1  0  0  0  0
 70 69  1  0  0  0  0
 71 50  1  0  0  0  0
 71 72  2  0  0  0  0
 72163  1  0  0  0  0
 73 72  1  0  0  0  0
 73164  1  0  0  0  0
 74 73  2  0  0  0  0
 75 74  1  0  0  0  0
 75 78  1  0  0  0  0
 75 77  1  0  0  0  0
 76 75  1  0  0  0  0
 77168  1  0  0  0  0
 78173  1  0  0  0  0
 78172  1  0  0  0  0
 79 80  2  0  0  0  0
 79 74  1  0  0  0  0
 80 71  1  0  0  0  0
 81 49  2  0  0  0  0
 81 82  1  0  0  0  0
 82 83  2  0  0  0  0
 83 84  1  0  0  0  0
 83 46  1  0  0  0  0
 84 85  1  0  0  0  0
 84177  1  0  0  0  0
 85179  1  0  0  0  0
 86 87  1  0  0  0  0
 86 85  1  0  0  0  0
 87 82  1  0  0  0  0
 87183  1  0  0  0  0
 88  3  1  0  0  0  0
 89  9  1  0  0  0  0
 91 13  1  0  0  0  0
 95 14  1  0  0  0  0
 97 15  1  0  0  0  0
 98 15  1  0  0  0  0
101 17  1  0  0  0  0
104 23  1  0  0  0  0
106 23  1  0  0  0  0
107 24  1  0  0  0  0
108 24  1  0  0  0  0
112 25  1  0  0  0  0
113 26  1  0  0  0  0
114 27  1  0  0  0  0
115 29  1  0  0  0  0
116 30  1  0  0  0  0
117 33  1  0  0  0  0
120 34  1  0  0  0  0
122 34  1  0  0  0  0
124 35  1  0  0  0  0
125 35  1  0  0  0  0
129 41  1  0  0  0  0
130 41  1  0  0  0  0
134 43  1  0  0  0  0
138 53  1  0  0  0  0
141 56  1  0  0  0  0
142 57  1  0  0  0  0
147 58  1  0  0  0  0
148 59  1  0  0  0  0
150 62  1  0  0  0  0
151 63  1  0  0  0  0
152 66  1  0  0  0  0
154 66  1  0  0  0  0
157 67  1  0  0  0  0
159 68  1  0  0  0  0
165 76  1  0  0  0  0
166 76  1  0  0  0  0
167 76  1  0  0  0  0
169 77  1  0  0  0  0
170 77  1  0  0  0  0
171 78  1  0  0  0  0
174 79  1  0  0  0  0
175 80  1  0  0  0  0
176 81  1  0  0  0  0
178 84  1  0  0  0  0
180 85  1  0  0  0  0
181 86  1  0  0  0  0
182 86  1  0  0  0  0
184 87  1  0  0  0  0
M  END
$$$$
