O=P1(O)OC2=C([Si](C3=CC=CC=C3)(C4=CC=CC=C4)C5=CC=CC=C5)C=C6C(CCCC6)=C2C7=C(O1)C([Si](C8=CC=CC=C8)(C9=CC=CC=C9)C%10=CC=CC=C%10)=CC%11=C7CCCC%11
 OpenBabel09032010383D

112122  0  0  0  0  0  0  0  0999 V2000
   -0.9521    1.9497   -2.0157 O   0  0  0  0  0  0  0  0  0  0  0  0
   -0.0494    1.4832   -0.9143 P   0  0  0  0  0  0  0  0  0  0  0  0
    1.0576    2.5862   -0.5472 O   0  0  0  0  0  0  0  0  0  0  0  0
   -0.7551    1.2173    0.5105 O   0  0  0  0  0  0  0  0  0  0  0  0
   -1.4276    0.0415    0.7047 C   0  0  0  0  0  0  0  0  0  0  0  0
   -2.8179    0.0846    0.9327 C   0  0  0  0  0  0  0  0  0  0  0  0
   -3.8385    1.6475    1.1448 Si  0  0  0  0  0  0  0  0  0  0  0  0
   -2.8378    3.2130    1.0047 C   0  0  0  0  0  0  0  0  0  0  0  0
   -2.7081    3.8800   -0.2312 C   0  0  0  0  0  0  0  0  0  0  0  0
   -1.9332    5.0365   -0.3610 C   0  0  0  0  0  0  0  0  0  0  0  0
   -1.2676    5.5569    0.7421 C   0  0  0  0  0  0  0  0  0  0  0  0
   -1.3830    4.9254    1.9756 C   0  0  0  0  0  0  0  0  0  0  0  0
   -2.1595    3.7692    2.1062 C   0  0  0  0  0  0  0  0  0  0  0  0
   -4.5397    1.5139    2.8966 C   0  0  0  0  0  0  0  0  0  0  0  0
   -3.7155    1.0754    3.9571 C   0  0  0  0  0  0  0  0  0  0  0  0
   -4.2048    0.9596    5.2611 C   0  0  0  0  0  0  0  0  0  0  0  0
   -5.5301    1.2750    5.5382 C   0  0  0  0  0  0  0  0  0  0  0  0
   -6.3660    1.7013    4.5113 C   0  0  0  0  0  0  0  0  0  0  0  0
   -5.8785    1.8168    3.2049 C   0  0  0  0  0  0  0  0  0  0  0  0
   -5.2462    1.7345   -0.0916 C   0  0  0  0  0  0  0  0  0  0  0  0
   -5.5039    0.7126   -1.0245 C   0  0  0  0  0  0  0  0  0  0  0  0
   -6.5768    0.7987   -1.9202 C   0  0  0  0  0  0  0  0  0  0  0  0
   -7.4100    1.9132   -1.9154 C   0  0  0  0  0  0  0  0  0  0  0  0
   -7.1607    2.9524   -1.0265 C   0  0  0  0  0  0  0  0  0  0  0  0
   -6.0896    2.8674   -0.1316 C   0  0  0  0  0  0  0  0  0  0  0  0
   -3.4630   -1.1543    1.1026 C   0  0  0  0  0  0  0  0  0  0  0  0
   -2.7785   -2.3721    1.0004 C   0  0  0  0  0  0  0  0  0  0  0  0
   -1.3768   -2.3761    0.8331 C   0  0  0  0  0  0  0  0  0  0  0  0
   -0.6735   -3.7039    0.5740 C   0  0  0  0  0  0  0  0  0  0  0  0
   -1.4457   -4.9267    1.0637 C   0  0  0  0  0  0  0  0  0  0  0  0
   -2.8826   -4.8713    0.5759 C   0  0  0  0  0  0  0  0  0  0  0  0
   -3.5785   -3.6455    1.1518 C   0  0  0  0  0  0  0  0  0  0  0  0
   -0.6520   -1.1467    0.7540 C   0  0  0  0  0  0  0  0  0  0  0  0
    0.7904   -1.0900    0.7535 C   0  0  0  0  0  0  0  0  0  0  0  0
    1.5048   -0.5206   -0.3336 C   0  0  0  0  0  0  0  0  0  0  0  0
    0.8046    0.1662   -1.2958 O   0  0  0  0  0  0  0  0  0  0  0  0
    2.8946   -0.6932   -0.5350 C   0  0  0  0  0  0  0  0  0  0  0  0
    3.7664   -0.2181   -2.1224 Si  0  0  0  0  0  0  0  0  0  0  0  0
    5.5699   -0.7340   -2.0825 C   0  0  0  0  0  0  0  0  0  0  0  0
    5.9088   -2.1022   -1.9918 C   0  0  0  0  0  0  0  0  0  0  0  0
    7.2411   -2.5219   -1.9651 C   0  0  0  0  0  0  0  0  0  0  0  0
    8.2668   -1.5864   -2.0385 C   0  0  0  0  0  0  0  0  0  0  0  0
    7.9609   -0.2337   -2.1484 C   0  0  0  0  0  0  0  0  0  0  0  0
    6.6280    0.1882   -2.1767 C   0  0  0  0  0  0  0  0  0  0  0  0
    3.0701   -1.1417   -3.5992 C   0  0  0  0  0  0  0  0  0  0  0  0
    2.0007   -2.0499   -3.4939 C   0  0  0  0  0  0  0  0  0  0  0  0
    1.5157   -2.7308   -4.6152 C   0  0  0  0  0  0  0  0  0  0  0  0
    2.0927   -2.5267   -5.8646 C   0  0  0  0  0  0  0  0  0  0  0  0
    3.1592   -1.6441   -5.9956 C   0  0  0  0  0  0  0  0  0  0  0  0
    3.6445   -0.9617   -4.8766 C   0  0  0  0  0  0  0  0  0  0  0  0
    3.5768    1.6195   -2.3487 C   0  0  0  0  0  0  0  0  0  0  0  0
    2.7908    2.1624   -3.3843 C   0  0  0  0  0  0  0  0  0  0  0  0
    2.5913    3.5409   -3.4929 C   0  0  0  0  0  0  0  0  0  0  0  0
    3.1827    4.4078   -2.5800 C   0  0  0  0  0  0  0  0  0  0  0  0
    3.9782    3.9016   -1.5582 C   0  0  0  0  0  0  0  0  0  0  0  0
    4.1613    2.5220   -1.4350 C   0  0  0  0  0  0  0  0  0  0  0  0
    3.6131   -1.2721    0.5212 C   0  0  0  0  0  0  0  0  0  0  0  0
    2.9875   -1.6887    1.7044 C   0  0  0  0  0  0  0  0  0  0  0  0
    1.5813   -1.6220    1.8184 C   0  0  0  0  0  0  0  0  0  0  0  0
    0.9378   -1.9558    3.1603 C   0  0  0  0  0  0  0  0  0  0  0  0
    1.7981   -2.8318    4.0677 C   0  0  0  0  0  0  0  0  0  0  0  0
    3.2024   -2.2638    4.1677 C   0  0  0  0  0  0  0  0  0  0  0  0
    3.8607   -2.2672    2.7949 C   0  0  0  0  0  0  0  0  0  0  0  0
    1.2868    3.1179   -1.3332 H   0  0  0  0  0  0  0  0  0  0  0  0
   -3.1911    3.4940   -1.1303 H   0  0  0  0  0  0  0  0  0  0  0  0
   -1.8462    5.5183   -1.3312 H   0  0  0  0  0  0  0  0  0  0  0  0
   -0.6572    6.4491    0.6410 H   0  0  0  0  0  0  0  0  0  0  0  0
   -0.8636    5.3266    2.8420 H   0  0  0  0  0  0  0  0  0  0  0  0
   -2.2075    3.3056    3.0891 H   0  0  0  0  0  0  0  0  0  0  0  0
   -2.6717    0.8137    3.7816 H   0  0  0  0  0  0  0  0  0  0  0  0
   -3.5484    0.6209    6.0584 H   0  0  0  0  0  0  0  0  0  0  0  0
   -5.9129    1.1858    6.5511 H   0  0  0  0  0  0  0  0  0  0  0  0
   -7.4045    1.9439    4.7228 H   0  0  0  0  0  0  0  0  0  0  0  0
   -6.5785    2.1421    2.4394 H   0  0  0  0  0  0  0  0  0  0  0  0
   -4.8710   -0.1708   -1.0848 H   0  0  0  0  0  0  0  0  0  0  0  0
   -6.7570   -0.0083   -2.6263 H   0  0  0  0  0  0  0  0  0  0  0  0
   -8.2457    1.9759   -2.6083 H   0  0  0  0  0  0  0  0  0  0  0  0
   -7.7974    3.8336   -1.0274 H   0  0  0  0  0  0  0  0  0  0  0  0
   -5.9212    3.7085    0.5422 H   0  0  0  0  0  0  0  0  0  0  0  0
   -4.5357   -1.1871    1.3088 H   0  0  0  0  0  0  0  0  0  0  0  0
    0.3150   -3.7460    1.0348 H   0  0  0  0  0  0  0  0  0  0  0  0
   -0.5242   -3.7862   -0.5107 H   0  0  0  0  0  0  0  0  0  0  0  0
   -1.4261   -4.9674    2.1602 H   0  0  0  0  0  0  0  0  0  0  0  0
   -0.9595   -5.8384    0.6986 H   0  0  0  0  0  0  0  0  0  0  0  0
   -2.9002   -4.8333   -0.5206 H   0  0  0  0  0  0  0  0  0  0  0  0
   -3.4208   -5.7773    0.8758 H   0  0  0  0  0  0  0  0  0  0  0  0
   -4.5527   -3.5361    0.6597 H   0  0  0  0  0  0  0  0  0  0  0  0
   -3.7663   -3.8009    2.2218 H   0  0  0  0  0  0  0  0  0  0  0  0
    5.1319   -2.8662   -1.9442 H   0  0  0  0  0  0  0  0  0  0  0  0
    7.4742   -3.5811   -1.8929 H   0  0  0  0  0  0  0  0  0  0  0  0
    9.3030   -1.9115   -2.0205 H   0  0  0  0  0  0  0  0  0  0  0  0
    8.7608    0.4989   -2.2198 H   0  0  0  0  0  0  0  0  0  0  0  0
    6.4421    1.2544   -2.2867 H   0  0  0  0  0  0  0  0  0  0  0  0
    1.5213   -2.2524   -2.5385 H   0  0  0  0  0  0  0  0  0  0  0  0
    0.6847   -3.4234   -4.5073 H   0  0  0  0  0  0  0  0  0  0  0  0
    1.7139   -3.0580   -6.7331 H   0  0  0  0  0  0  0  0  0  0  0  0
    3.6193   -1.4869   -6.9677 H   0  0  0  0  0  0  0  0  0  0  0  0
    4.4882   -0.2853   -5.0177 H   0  0  0  0  0  0  0  0  0  0  0  0
    2.2849    1.5204   -4.1060 H   0  0  0  0  0  0  0  0  0  0  0  0
    1.9450    3.9320   -4.2734 H   0  0  0  0  0  0  0  0  0  0  0  0
    2.9973    5.4741   -2.6462 H   0  0  0  0  0  0  0  0  0  0  0  0
    4.4348    4.5760   -0.8373 H   0  0  0  0  0  0  0  0  0  0  0  0
    4.7519    2.1595   -0.5930 H   0  0  0  0  0  0  0  0  0  0  0  0
    4.6951   -1.3911    0.4560 H   0  0  0  0  0  0  0  0  0  0  0  0
    0.7359   -1.0044    3.6700 H   0  0  0  0  0  0  0  0  0  0  0  0
   -0.0207   -2.4647    3.0436 H   0  0  0  0  0  0  0  0  0  0  0  0
    1.3431   -2.8876    5.0631 H   0  0  0  0  0  0  0  0  0  0  0  0
    1.8373   -3.8550    3.6729 H   0  0  0  0  0  0  0  0  0  0  0  0
    3.8029   -2.8556    4.8675 H   0  0  0  0  0  0  0  0  0  0  0  0
    3.1613   -1.2409    4.5628 H   0  0  0  0  0  0  0  0  0  0  0  0
    4.8002   -1.7049    2.8593 H   0  0  0  0  0  0  0  0  0  0  0  0
    4.1129   -3.2976    2.5137 H   0  0  0  0  0  0  0  0  0  0  0  0
  1  2  2  0  0  0  0
  2  3  1  0  0  0  0
  2  4  1  0  0  0  0
  4  5  1  0  0  0  0
  5 33  2  0  0  0  0
  5  6  1  0  0  0  0
  6 26  2  0  0  0  0
  6  7  1  0  0  0  0
  7 14  1  0  0  0  0
  8  7  1  0  0  0  0
  8 13  2  0  0  0  0
  9  8  1  0  0  0  0
 10  9  2  0  0  0  0
 10 11  1  0  0  0  0
 11 12  2  0  0  0  0
 12 13  1  0  0  0  0
 12 68  1  0  0  0  0
 13 69  1  0  0  0  0
 14 19  2  0  0  0  0
 14 15  1  0  0  0  0
 15 16  2  0  0  0  0
 16 17  1  0  0  0  0
 16 71  1  0  0  0  0
 17 72  1  0  0  0  0
 18 73  1  0  0  0  0
 18 17  2  0  0  0  0
 19 18  1  0  0  0  0
 20  7  1  0  0  0  0
 21 20  2  0  0  0  0
 22 23  2  0  0  0  0
 22 21  1  0  0  0  0
 23 24  1  0  0  0  0
 24 25  2  0  0  0  0
 25 20  1  0  0  0  0
 25 79  1  0  0  0  0
 26 80  1  0  0  0  0
 27 26  1  0  0  0  0
 27 32  1  0  0  0  0
 28 27  2  0  0  0  0
 29 28  1  0  0  0  0
 29 81  1  0  0  0  0
 29 30  1  0  0  0  0
 30 83  1  0  0  0  0
 31 86  1  0  0  0  0
 31 30  1  0  0  0  0
 31 32  1  0  0  0  0
 32 88  1  0  0  0  0
 33 28  1  0  0  0  0
 34 33  1  0  0  0  0
 34 59  2  0  0  0  0
 35 34  1  0  0  0  0
 36  2  1  0  0  0  0
 36 35  1  0  0  0  0
 37 35  2  0  0  0  0
 37 57  1  0  0  0  0
 38 39  1  0  0  0  0
 38 37  1  0  0  0  0
 39 40  2  0  0  0  0
 40 41  1  0  0  0  0
 40 89  1  0  0  0  0
 41 90  1  0  0  0  0
 42 91  1  0  0  0  0
 42 41  2  0  0  0  0
 43 42  1  0  0  0  0
 44 43  2  0  0  0  0
 44 39  1  0  0  0  0
 45 46  1  0  0  0  0
 45 38  1  0  0  0  0
 46 94  1  0  0  0  0
 47 95  1  0  0  0  0
 47 46  2  0  0  0  0
 48 47  1  0  0  0  0
 49 48  2  0  0  0  0
 49 50  1  0  0  0  0
 50 45  2  0  0  0  0
 51 38  1  0  0  0  0
 51 56  2  0  0  0  0
 52 51  1  0  0  0  0
 53 52  2  0  0  0  0
 53 54  1  0  0  0  0
 54 55  2  0  0  0  0
 55 56  1  0  0  0  0
 55102  1  0  0  0  0
 56103  1  0  0  0  0
 57 58  2  0  0  0  0
 58 59  1  0  0  0  0
 58 63  1  0  0  0  0
 59 60  1  0  0  0  0
 60105  1  0  0  0  0
 60 61  1  0  0  0  0
 61 62  1  0  0  0  0
 61107  1  0  0  0  0
 62110  1  0  0  0  0
 62109  1  0  0  0  0
 63111  1  0  0  0  0
 63 62  1  0  0  0  0
 64  3  1  0  0  0  0
 65  9  1  0  0  0  0
 66 10  1  0  0  0  0
 67 11  1  0  0  0  0
 70 15  1  0  0  0  0
 74 19  1  0  0  0  0
 75 21  1  0  0  0  0
 76 22  1  0  0  0  0
 77 23  1  0  0  0  0
 78 24  1  0  0  0  0
 82 29  1  0  0  0  0
 84 30  1  0  0  0  0
 85 31  1  0  0  0  0
 87 32  1  0  0  0  0
 92 43  1  0  0  0  0
 93 44  1  0  0  0  0
 96 48  1  0  0  0  0
 97 49  1  0  0  0  0
 98 50  1  0  0  0  0
 99 52  1  0  0  0  0
100 53  1  0  0  0  0
101 54  1  0  0  0  0
104 57  1  0  0  0  0
106 60  1  0  0  0  0
108 61  1  0  0  0  0
112 63  1  0  0  0  0
M  END
$$$$
