O=P1(O)OC2=C(C3=C(C4CCCCC4)C=C(C5CCCCC5)C=C3C6CCCCC6)C=C7C(C=CC=C7)=C2C8=C(O1)[C@@]([C@@]9=C(C%10CCCCC%10)C=C(C%11CCCCC%11)C=C9C%12CCCCC%12)=CC%13=C8C=CC=C%13
 OpenBabel09032010373D

154166  0  0  0  0  0  0  0  0999 V2000
   -0.8340   -0.8332    1.8066 O   0  0  0  0  0  0  0  0  0  0  0  0
   -0.1377   -0.5007    0.5263 P   0  0  0  0  0  0  0  0  0  0  0  0
    0.4487   -1.7914   -0.2334 O   0  0  0  0  0  0  0  0  0  0  0  0
    1.1445    0.4580    0.6842 O   0  0  0  0  0  0  0  0  0  0  0  0
    1.7094    1.0779   -0.4052 C   0  0  0  0  0  0  0  0  0  0  0  0
    3.0733    0.8103   -0.6415 C   0  0  0  0  0  0  0  0  0  0  0  0
    3.8797   -0.0636    0.2433 C   0  0  0  0  0  0  0  0  0  0  0  0
    4.3445    0.4382    1.4952 C   0  0  0  0  0  0  0  0  0  0  0  0
    4.0516    1.8636    1.9743 C   0  0  0  0  0  0  0  0  0  0  0  0
    5.3354    2.6721    2.2287 C   0  0  0  0  0  0  0  0  0  0  0  0
    5.0230    4.1431    2.5226 C   0  0  0  0  0  0  0  0  0  0  0  0
    3.6788    4.3558    3.2218 C   0  0  0  0  0  0  0  0  0  0  0  0
    3.2779    3.1503    4.0609 C   0  0  0  0  0  0  0  0  0  0  0  0
    3.1271    1.8842    3.2116 C   0  0  0  0  0  0  0  0  0  0  0  0
    5.1183   -0.3938    2.3277 C   0  0  0  0  0  0  0  0  0  0  0  0
    5.4696   -1.6903    1.9516 C   0  0  0  0  0  0  0  0  0  0  0  0
    6.3127   -2.5500    2.8804 C   0  0  0  0  0  0  0  0  0  0  0  0
    5.4811   -3.7077    3.4661 C   0  0  0  0  0  0  0  0  0  0  0  0
    6.3814   -4.7512    4.1159 C   0  0  0  0  0  0  0  0  0  0  0  0
    7.3424   -5.3884    3.1115 C   0  0  0  0  0  0  0  0  0  0  0  0
    7.6260   -4.5155    1.8889 C   0  0  0  0  0  0  0  0  0  0  0  0
    7.6308   -3.0279    2.2294 C   0  0  0  0  0  0  0  0  0  0  0  0
    5.0236   -2.1647    0.7145 C   0  0  0  0  0  0  0  0  0  0  0  0
    4.2296   -1.3911   -0.1517 C   0  0  0  0  0  0  0  0  0  0  0  0
    3.7975   -1.9825   -1.5017 C   0  0  0  0  0  0  0  0  0  0  0  0
    3.1459   -3.3838   -1.4331 C   0  0  0  0  0  0  0  0  0  0  0  0
    4.0801   -4.5835   -1.5912 C   0  0  0  0  0  0  0  0  0  0  0  0
    5.0890   -4.4019   -2.7152 C   0  0  0  0  0  0  0  0  0  0  0  0
    5.8593   -3.0976   -2.5709 C   0  0  0  0  0  0  0  0  0  0  0  0
    4.9174   -1.8982   -2.5562 C   0  0  0  0  0  0  0  0  0  0  0  0
    3.6948    1.4513   -1.7161 C   0  0  0  0  0  0  0  0  0  0  0  0
    2.9845    2.2980   -2.5673 C   0  0  0  0  0  0  0  0  0  0  0  0
    1.6189    2.5835   -2.3070 C   0  0  0  0  0  0  0  0  0  0  0  0
    0.9560    3.3919   -3.2662 C   0  0  0  0  0  0  0  0  0  0  0  0
    1.6104    3.9329   -4.3763 C   0  0  0  0  0  0  0  0  0  0  0  0
    2.9560    3.6726   -4.5774 C   0  0  0  0  0  0  0  0  0  0  0  0
    3.6370    2.8558   -3.6799 C   0  0  0  0  0  0  0  0  0  0  0  0
    0.9675    2.0310   -1.1451 C   0  0  0  0  0  0  0  0  0  0  0  0
   -0.3526    2.4411   -0.7154 C   0  0  0  0  0  0  0  0  0  0  0  0
   -1.3717    1.4803   -0.5192 C   0  0  0  0  0  0  0  0  0  0  0  0
   -1.0578    0.1478   -0.6251 O   0  0  0  0  0  0  0  0  0  0  0  0
   -2.7249    1.8119   -0.3270 C   0  0  0  0  0  0  0  0  0  0  0  0
   -3.8017    0.7959   -0.2884 C   0  0  0  0  0  0  0  0  0  0  0  0
   -4.4036    0.4142    0.9469 C   0  0  0  0  0  0  0  0  0  0  0  0
   -3.9492    1.0031    2.2886 C   0  0  0  0  0  0  0  0  0  0  0  0
   -4.8349    2.2054    2.6940 C   0  0  0  0  0  0  0  0  0  0  0  0
   -5.6845    1.9318    3.9309 C   0  0  0  0  0  0  0  0  0  0  0  0
   -4.8331    1.5312    5.1355 C   0  0  0  0  0  0  0  0  0  0  0  0
   -3.6247    0.6677    4.7705 C   0  0  0  0  0  0  0  0  0  0  0  0
   -3.8135   -0.0335    3.4296 C   0  0  0  0  0  0  0  0  0  0  0  0
   -5.4881   -0.4863    0.9296 C   0  0  0  0  0  0  0  0  0  0  0  0
   -5.9609   -1.0599   -0.2544 C   0  0  0  0  0  0  0  0  0  0  0  0
   -7.1169   -2.0441   -0.2103 C   0  0  0  0  0  0  0  0  0  0  0  0
   -8.3440   -1.5199   -0.9767 C   0  0  0  0  0  0  0  0  0  0  0  0
   -9.5037   -2.5126   -0.9196 C   0  0  0  0  0  0  0  0  0  0  0  0
   -9.0873   -3.8942   -1.4160 C   0  0  0  0  0  0  0  0  0  0  0  0
   -7.8698   -4.4208   -0.6620 C   0  0  0  0  0  0  0  0  0  0  0  0
   -6.7028   -3.4365   -0.7181 C   0  0  0  0  0  0  0  0  0  0  0  0
   -5.3479   -0.6982   -1.4557 C   0  0  0  0  0  0  0  0  0  0  0  0
   -4.2896    0.2313   -1.5030 C   0  0  0  0  0  0  0  0  0  0  0  0
   -3.7212    0.6082   -2.8739 C   0  0  0  0  0  0  0  0  0  0  0  0
   -4.7908    1.1848   -3.8173 C   0  0  0  0  0  0  0  0  0  0  0  0
   -4.1673    1.7243   -5.1087 C   0  0  0  0  0  0  0  0  0  0  0  0
   -2.9055    0.9735   -5.5396 C   0  0  0  0  0  0  0  0  0  0  0  0
   -2.9127   -0.4720   -5.0617 C   0  0  0  0  0  0  0  0  0  0  0  0
   -2.9749   -0.5718   -3.5343 C   0  0  0  0  0  0  0  0  0  0  0  0
   -3.0598    3.1654   -0.2335 C   0  0  0  0  0  0  0  0  0  0  0  0
   -2.0844    4.1628   -0.2853 C   0  0  0  0  0  0  0  0  0  0  0  0
   -0.7264    3.8171   -0.5090 C   0  0  0  0  0  0  0  0  0  0  0  0
    0.2079    4.8836   -0.4716 C   0  0  0  0  0  0  0  0  0  0  0  0
   -0.1776    6.2133   -0.2843 C   0  0  0  0  0  0  0  0  0  0  0  0
   -1.5166    6.5243   -0.1126 C   0  0  0  0  0  0  0  0  0  0  0  0
   -2.4632    5.5039   -0.1085 C   0  0  0  0  0  0  0  0  0  0  0  0
    0.8313   -1.5529   -1.0934 H   0  0  0  0  0  0  0  0  0  0  0  0
    3.5252    2.4118    1.1862 H   0  0  0  0  0  0  0  0  0  0  0  0
    6.0121    2.6120    1.3672 H   0  0  0  0  0  0  0  0  0  0  0  0
    5.8862    2.2548    3.0813 H   0  0  0  0  0  0  0  0  0  0  0  0
    5.8312    4.5570    3.1376 H   0  0  0  0  0  0  0  0  0  0  0  0
    5.0268    4.7168    1.5877 H   0  0  0  0  0  0  0  0  0  0  0  0
    3.7283    5.2546    3.8468 H   0  0  0  0  0  0  0  0  0  0  0  0
    2.9026    4.5432    2.4688 H   0  0  0  0  0  0  0  0  0  0  0  0
    4.0393    2.9804    4.8326 H   0  0  0  0  0  0  0  0  0  0  0  0
    2.3385    3.3511    4.5884 H   0  0  0  0  0  0  0  0  0  0  0  0
    2.0873    1.8034    2.8702 H   0  0  0  0  0  0  0  0  0  0  0  0
    3.2885    1.0162    3.8619 H   0  0  0  0  0  0  0  0  0  0  0  0
    5.4554   -0.0161    3.2915 H   0  0  0  0  0  0  0  0  0  0  0  0
    6.6152   -1.9156    3.7263 H   0  0  0  0  0  0  0  0  0  0  0  0
    4.7744   -3.3129    4.2067 H   0  0  0  0  0  0  0  0  0  0  0  0
    4.8729   -4.1954    2.6936 H   0  0  0  0  0  0  0  0  0  0  0  0
    6.9597   -4.2760    4.9184 H   0  0  0  0  0  0  0  0  0  0  0  0
    5.7759   -5.5313    4.5913 H   0  0  0  0  0  0  0  0  0  0  0  0
    8.2825   -5.6233    3.6255 H   0  0  0  0  0  0  0  0  0  0  0  0
    6.9366   -6.3482    2.7692 H   0  0  0  0  0  0  0  0  0  0  0  0
    6.8704   -4.7151    1.1204 H   0  0  0  0  0  0  0  0  0  0  0  0
    8.5892   -4.8029    1.4516 H   0  0  0  0  0  0  0  0  0  0  0  0
    8.4503   -2.8509    2.9396 H   0  0  0  0  0  0  0  0  0  0  0  0
    7.8775   -2.4403    1.3370 H   0  0  0  0  0  0  0  0  0  0  0  0
    5.3132   -3.1665    0.4254 H   0  0  0  0  0  0  0  0  0  0  0  0
    2.9892   -1.3431   -1.8743 H   0  0  0  0  0  0  0  0  0  0  0  0
    2.4202   -3.4425   -2.2568 H   0  0  0  0  0  0  0  0  0  0  0  0
    2.5626   -3.4972   -0.5117 H   0  0  0  0  0  0  0  0  0  0  0  0
    3.4791   -5.4799   -1.7879 H   0  0  0  0  0  0  0  0  0  0  0  0
    4.6076   -4.7863   -0.6548 H   0  0  0  0  0  0  0  0  0  0  0  0
    4.5678   -4.4156   -3.6803 H   0  0  0  0  0  0  0  0  0  0  0  0
    5.7885   -5.2455   -2.7205 H   0  0  0  0  0  0  0  0  0  0  0  0
    6.5587   -2.9960   -3.4090 H   0  0  0  0  0  0  0  0  0  0  0  0
    6.4669   -3.1179   -1.6597 H   0  0  0  0  0  0  0  0  0  0  0  0
    5.5048   -0.9806   -2.4368 H   0  0  0  0  0  0  0  0  0  0  0  0
    4.4462   -1.8321   -3.5464 H   0  0  0  0  0  0  0  0  0  0  0  0
    4.7544    1.2691   -1.8928 H   0  0  0  0  0  0  0  0  0  0  0  0
   -0.1067    3.6082   -3.1671 H   0  0  0  0  0  0  0  0  0  0  0  0
    1.0606    4.5534   -5.0791 H   0  0  0  0  0  0  0  0  0  0  0  0
    3.4730    4.0914   -5.4365 H   0  0  0  0  0  0  0  0  0  0  0  0
    4.6892    2.6466   -3.8652 H   0  0  0  0  0  0  0  0  0  0  0  0
   -2.9332    1.3953    2.1552 H   0  0  0  0  0  0  0  0  0  0  0  0
   -4.1814    3.0611    2.9119 H   0  0  0  0  0  0  0  0  0  0  0  0
   -5.4857    2.5257    1.8715 H   0  0  0  0  0  0  0  0  0  0  0  0
   -6.2786    2.8180    4.1824 H   0  0  0  0  0  0  0  0  0  0  0  0
   -6.4019    1.1324    3.7076 H   0  0  0  0  0  0  0  0  0  0  0  0
   -5.4687    0.9952    5.8508 H   0  0  0  0  0  0  0  0  0  0  0  0
   -4.4799    2.4295    5.6563 H   0  0  0  0  0  0  0  0  0  0  0  0
   -3.4461   -0.0690    5.5621 H   0  0  0  0  0  0  0  0  0  0  0  0
   -2.7274    1.2977    4.7253 H   0  0  0  0  0  0  0  0  0  0  0  0
   -2.9631   -0.6937    3.2328 H   0  0  0  0  0  0  0  0  0  0  0  0
   -4.6869   -0.6887    3.5094 H   0  0  0  0  0  0  0  0  0  0  0  0
   -5.9867   -0.7452    1.8604 H   0  0  0  0  0  0  0  0  0  0  0  0
   -7.4218   -2.1642    0.8393 H   0  0  0  0  0  0  0  0  0  0  0  0
   -8.0923   -1.3314   -2.0280 H   0  0  0  0  0  0  0  0  0  0  0  0
   -8.6676   -0.5594   -0.5565 H   0  0  0  0  0  0  0  0  0  0  0  0
  -10.3376   -2.1395   -1.5249 H   0  0  0  0  0  0  0  0  0  0  0  0
   -9.8678   -2.5896    0.1124 H   0  0  0  0  0  0  0  0  0  0  0  0
   -8.8583   -3.8427   -2.4876 H   0  0  0  0  0  0  0  0  0  0  0  0
   -9.9227   -4.5940   -1.3013 H   0  0  0  0  0  0  0  0  0  0  0  0
   -7.5608   -5.3824   -1.0871 H   0  0  0  0  0  0  0  0  0  0  0  0
   -8.1404   -4.6067    0.3847 H   0  0  0  0  0  0  0  0  0  0  0  0
   -6.3390   -3.3794   -1.7518 H   0  0  0  0  0  0  0  0  0  0  0  0
   -5.8717   -3.8244   -0.1161 H   0  0  0  0  0  0  0  0  0  0  0  0
   -5.7076   -1.1407   -2.3824 H   0  0  0  0  0  0  0  0  0  0  0  0
   -2.9869    1.4116   -2.7555 H   0  0  0  0  0  0  0  0  0  0  0  0
   -5.3537    1.9877   -3.3252 H   0  0  0  0  0  0  0  0  0  0  0  0
   -5.5244    0.4122   -4.0803 H   0  0  0  0  0  0  0  0  0  0  0  0
   -3.9192    2.7856   -4.9854 H   0  0  0  0  0  0  0  0  0  0  0  0
   -4.9181    1.6774   -5.9068 H   0  0  0  0  0  0  0  0  0  0  0  0
   -2.8096    1.0129   -6.6305 H   0  0  0  0  0  0  0  0  0  0  0  0
   -2.0227    1.4821   -5.1314 H   0  0  0  0  0  0  0  0  0  0  0  0
   -2.0223   -0.9963   -5.4267 H   0  0  0  0  0  0  0  0  0  0  0  0
   -3.7788   -0.9889   -5.4941 H   0  0  0  0  0  0  0  0  0  0  0  0
   -3.4211   -1.5391   -3.2739 H   0  0  0  0  0  0  0  0  0  0  0  0
   -1.9534   -0.6044   -3.1342 H   0  0  0  0  0  0  0  0  0  0  0  0
   -4.1064    3.4363   -0.0976 H   0  0  0  0  0  0  0  0  0  0  0  0
    1.2739    4.6883   -0.5751 H   0  0  0  0  0  0  0  0  0  0  0  0
    0.5741    6.9979   -0.2681 H   0  0  0  0  0  0  0  0  0  0  0  0
   -1.8250    7.5553    0.0345 H   0  0  0  0  0  0  0  0  0  0  0  0
   -3.5079    5.7653    0.0502 H   0  0  0  0  0  0  0  0  0  0  0  0
  2  4  1  0  0  0  0
  2  1  2  0  0  0  0
  3  2  1  0  0  0  0
  5  4  1  0  0  0  0
  6  5  1  0  0  0  0
  6  7  1  0  0  0  0
  7  8  1  0  0  0  0
  8  9  1  0  0  0  0
  8 15  2  0  0  0  0
  9 10  1  0  0  0  0
  9 14  1  0  0  0  0
 10 11  1  0  0  0  0
 10 77  1  0  0  0  0
 11 78  1  0  0  0  0
 11 12  1  0  0  0  0
 12 80  1  0  0  0  0
 12 13  1  0  0  0  0
 13 83  1  0  0  0  0
 13 82  1  0  0  0  0
 14 85  1  0  0  0  0
 14 13  1  0  0  0  0
 15 86  1  0  0  0  0
 16 15  1  0  0  0  0
 16 17  1  0  0  0  0
 17 18  1  0  0  0  0
 17 87  1  0  0  0  0
 18 19  1  0  0  0  0
 18 88  1  0  0  0  0
 19 91  1  0  0  0  0
 19 90  1  0  0  0  0
 20 92  1  0  0  0  0
 20 19  1  0  0  0  0
 21 22  1  0  0  0  0
 21 20  1  0  0  0  0
 22 17  1  0  0  0  0
 22 96  1  0  0  0  0
 23 16  2  0  0  0  0
 24  7  2  0  0  0  0
 24 23  1  0  0  0  0
 25 26  1  0  0  0  0
 25 24  1  0  0  0  0
 26101  1  0  0  0  0
 27 26  1  0  0  0  0
 27103  1  0  0  0  0
 28 29  1  0  0  0  0
 28 27  1  0  0  0  0
 29 30  1  0  0  0  0
 29107  1  0  0  0  0
 30108  1  0  0  0  0
 30 25  1  0  0  0  0
 31  6  2  0  0  0  0
 32 33  1  0  0  0  0
 32 31  1  0  0  0  0
 33 38  1  0  0  0  0
 34111  1  0  0  0  0
 34 33  2  0  0  0  0
 35 34  1  0  0  0  0
 36 35  2  0  0  0  0
 36 37  1  0  0  0  0
 37 32  2  0  0  0  0
 38 39  1  0  0  0  0
 38  5  2  0  0  0  0
 39 40  2  0  0  0  0
 39 69  1  0  0  0  0
 40 42  1  0  0  0  0
 41 40  1  0  0  0  0
 41  2  1  0  0  0  0
 42 43  1  0  0  0  0
 42 67  2  0  0  0  0
 43 44  2  0  0  0  0
 44 45  1  0  0  0  0
 45 46  1  0  0  0  0
 45 50  1  0  0  0  0
 46116  1  0  0  0  0
 46 47  1  0  0  0  0
 47118  1  0  0  0  0
 47 48  1  0  0  0  0
 48121  1  0  0  0  0
 48120  1  0  0  0  0
 49 48  1  0  0  0  0
 49122  1  0  0  0  0
 50125  1  0  0  0  0
 50 49  1  0  0  0  0
 51 44  1  0  0  0  0
 51126  1  0  0  0  0
 52 53  1  0  0  0  0
 52 51  2  0  0  0  0
 53127  1  0  0  0  0
 54 55  1  0  0  0  0
 54129  1  0  0  0  0
 54 53  1  0  0  0  0
 55131  1  0  0  0  0
 56133  1  0  0  0  0
 56 55  1  0  0  0  0
 56 57  1  0  0  0  0
 57135  1  0  0  0  0
 58 57  1  0  0  0  0
 58 53  1  0  0  0  0
 58137  1  0  0  0  0
 59 52  1  0  0  0  0
 60 59  2  0  0  0  0
 60 43  1  0  0  0  0
 61139  1  0  0  0  0
 61 60  1  0  0  0  0
 62140  1  0  0  0  0
 62 61  1  0  0  0  0
 63142  1  0  0  0  0
 63 62  1  0  0  0  0
 64145  1  0  0  0  0
 64 63  1  0  0  0  0
 64 65  1  0  0  0  0
 65 66  1  0  0  0  0
 66148  1  0  0  0  0
 66149  1  0  0  0  0
 66 61  1  0  0  0  0
 67150  1  0  0  0  0
 68 67  1  0  0  0  0
 68 73  2  0  0  0  0
 69 70  2  0  0  0  0
 69 68  1  0  0  0  0
 70 71  1  0  0  0  0
 71152  1  0  0  0  0
 71 72  2  0  0  0  0
 72 73  1  0  0  0  0
 72153  1  0  0  0  0
 73154  1  0  0  0  0
 74  3  1  0  0  0  0
 75  9  1  0  0  0  0
 76 10  1  0  0  0  0
 79 11  1  0  0  0  0
 81 12  1  0  0  0  0
 84 14  1  0  0  0  0
 89 18  1  0  0  0  0
 93 20  1  0  0  0  0
 94 21  1  0  0  0  0
 95 21  1  0  0  0  0
 97 22  1  0  0  0  0
 98 23  1  0  0  0  0
 99 25  1  0  0  0  0
100 26  1  0  0  0  0
102 27  1  0  0  0  0
104 28  1  0  0  0  0
105 28  1  0  0  0  0
106 29  1  0  0  0  0
109 30  1  0  0  0  0
110 31  1  0  0  0  0
112 35  1  0  0  0  0
113 36  1  0  0  0  0
114 37  1  0  0  0  0
115 45  1  0  0  0  0
117 46  1  0  0  0  0
119 47  1  0  0  0  0
123 49  1  0  0  0  0
124 50  1  0  0  0  0
128 54  1  0  0  0  0
130 55  1  0  0  0  0
132 56  1  0  0  0  0
134 57  1  0  0  0  0
136 58  1  0  0  0  0
138 59  1  0  0  0  0
141 62  1  0  0  0  0
143 63  1  0  0  0  0
144 64  1  0  0  0  0
146 65  1  0  0  0  0
147 65  1  0  0  0  0
151 70  1  0  0  0  0
M  END
$$$$
