O=P1(O)OC2=C(C3=CC(C(C)(C)C)=CC(C(C)(C)C)=C3)C=C4C(C=CC=C4)=C2C5=C(O1)C(C6=CC(C(C)(C)C)=CC(C(C)(C)C)=C6)=CC7=C5C=CC=C7
 OpenBabel09032010383D

106112  0  0  0  0  0  0  0  0999 V2000
    0.7747    0.4520    1.6985 O   0  0  0  0  0  0  0  0  0  0  0  0
    0.0119    0.2247    0.4313 P   0  0  0  0  0  0  0  0  0  0  0  0
   -0.9786    1.4490    0.0994 O   0  0  0  0  0  0  0  0  0  0  0  0
   -0.9749   -1.0479    0.4609 O   0  0  0  0  0  0  0  0  0  0  0  0
   -1.5980   -1.4317   -0.7062 C   0  0  0  0  0  0  0  0  0  0  0  0
   -2.9910   -1.2430   -0.7656 C   0  0  0  0  0  0  0  0  0  0  0  0
   -3.7406   -0.5984    0.3266 C   0  0  0  0  0  0  0  0  0  0  0  0
   -4.3690    0.6396    0.1217 C   0  0  0  0  0  0  0  0  0  0  0  0
   -5.0634    1.3047    1.1473 C   0  0  0  0  0  0  0  0  0  0  0  0
   -5.7267    2.6660    0.8707 C   0  0  0  0  0  0  0  0  0  0  0  0
   -6.7716    2.5157   -0.2562 C   0  0  0  0  0  0  0  0  0  0  0  0
   -6.4578    3.2681    2.0921 C   0  0  0  0  0  0  0  0  0  0  0  0
   -4.6516    3.6856    0.4353 C   0  0  0  0  0  0  0  0  0  0  0  0
   -5.1106    0.6747    2.4037 C   0  0  0  0  0  0  0  0  0  0  0  0
   -4.4983   -0.5724    2.6587 C   0  0  0  0  0  0  0  0  0  0  0  0
   -4.5865   -1.2035    4.0611 C   0  0  0  0  0  0  0  0  0  0  0  0
   -3.9412   -0.2571    5.0967 C   0  0  0  0  0  0  0  0  0  0  0  0
   -3.8681   -2.5670    4.1819 C   0  0  0  0  0  0  0  0  0  0  0  0
   -6.0667   -1.4350    4.4349 C   0  0  0  0  0  0  0  0  0  0  0  0
   -3.8195   -1.1887    1.5969 C   0  0  0  0  0  0  0  0  0  0  0  0
   -3.6554   -1.6638   -1.9177 C   0  0  0  0  0  0  0  0  0  0  0  0
   -2.9614   -2.2156   -2.9984 C   0  0  0  0  0  0  0  0  0  0  0  0
   -1.5511   -2.3837   -2.9342 C   0  0  0  0  0  0  0  0  0  0  0  0
   -0.9233   -2.8475   -4.1185 C   0  0  0  0  0  0  0  0  0  0  0  0
   -1.6419   -3.1923   -5.2665 C   0  0  0  0  0  0  0  0  0  0  0  0
   -3.0212   -3.0661   -5.2796 C   0  0  0  0  0  0  0  0  0  0  0  0
   -3.6751   -2.5738   -4.1543 C   0  0  0  0  0  0  0  0  0  0  0  0
   -0.8315   -2.0339   -1.7333 C   0  0  0  0  0  0  0  0  0  0  0  0
    0.5892   -2.2556   -1.5436 C   0  0  0  0  0  0  0  0  0  0  0  0
    1.4315   -1.1773   -1.1685 C   0  0  0  0  0  0  0  0  0  0  0  0
    0.8736    0.0587   -0.9201 O   0  0  0  0  0  0  0  0  0  0  0  0
    2.8317   -1.2681   -1.1018 C   0  0  0  0  0  0  0  0  0  0  0  0
    3.6799   -0.1132   -0.7788 C   0  0  0  0  0  0  0  0  0  0  0  0
    3.9405    0.2293    0.5565 C   0  0  0  0  0  0  0  0  0  0  0  0
    4.7490    1.3241    0.8914 C   0  0  0  0  0  0  0  0  0  0  0  0
    5.0349    1.7283    2.3485 C   0  0  0  0  0  0  0  0  0  0  0  0
    4.3931    0.7922    3.3978 C   0  0  0  0  0  0  0  0  0  0  0  0
    4.4853    3.1479    2.6060 C   0  0  0  0  0  0  0  0  0  0  0  0
    6.5580    1.7175    2.6044 C   0  0  0  0  0  0  0  0  0  0  0  0
    5.2961    2.0715   -0.1728 C   0  0  0  0  0  0  0  0  0  0  0  0
    5.0644    1.7634   -1.5300 C   0  0  0  0  0  0  0  0  0  0  0  0
    5.6913    2.6295   -2.6367 C   0  0  0  0  0  0  0  0  0  0  0  0
    5.3499    2.1592   -4.0690 C   0  0  0  0  0  0  0  0  0  0  0  0
    7.2298    2.6071   -2.5056 C   0  0  0  0  0  0  0  0  0  0  0  0
    5.1903    4.0839   -2.5034 C   0  0  0  0  0  0  0  0  0  0  0  0
    4.2473    0.6581   -1.8053 C   0  0  0  0  0  0  0  0  0  0  0  0
    3.4233   -2.5039   -1.3659 C   0  0  0  0  0  0  0  0  0  0  0  0
    2.6523   -3.6324   -1.6570 C   0  0  0  0  0  0  0  0  0  0  0  0
    1.2369   -3.5310   -1.7298 C   0  0  0  0  0  0  0  0  0  0  0  0
    0.5325   -4.7445   -1.9365 C   0  0  0  0  0  0  0  0  0  0  0  0
    1.1808   -5.9680   -2.1264 C   0  0  0  0  0  0  0  0  0  0  0  0
    2.5647   -6.0265   -2.0982 C   0  0  0  0  0  0  0  0  0  0  0  0
    3.2944   -4.8661   -1.8579 C   0  0  0  0  0  0  0  0  0  0  0  0
   -1.4824    1.6996    0.8952 H   0  0  0  0  0  0  0  0  0  0  0  0
   -4.2953    1.0970   -0.8645 H   0  0  0  0  0  0  0  0  0  0  0  0
   -6.3193    2.1992   -1.2025 H   0  0  0  0  0  0  0  0  0  0  0  0
   -7.2844    3.4653   -0.4489 H   0  0  0  0  0  0  0  0  0  0  0  0
   -7.5333    1.7729    0.0090 H   0  0  0  0  0  0  0  0  0  0  0  0
   -7.2637    2.6130    2.4431 H   0  0  0  0  0  0  0  0  0  0  0  0
   -5.7706    3.4435    2.9280 H   0  0  0  0  0  0  0  0  0  0  0  0
   -6.9137    4.2339    1.8430 H   0  0  0  0  0  0  0  0  0  0  0  0
   -4.1566    3.3939   -0.4975 H   0  0  0  0  0  0  0  0  0  0  0  0
   -3.8741    3.7902    1.2013 H   0  0  0  0  0  0  0  0  0  0  0  0
   -5.0909    4.6760    0.2680 H   0  0  0  0  0  0  0  0  0  0  0  0
   -5.6385    1.1566    3.2224 H   0  0  0  0  0  0  0  0  0  0  0  0
   -2.8958   -0.0471    4.8411 H   0  0  0  0  0  0  0  0  0  0  0  0
   -3.9571   -0.6992    6.0998 H   0  0  0  0  0  0  0  0  0  0  0  0
   -4.4627    0.7039    5.1630 H   0  0  0  0  0  0  0  0  0  0  0  0
   -2.7966   -2.4792    3.9671 H   0  0  0  0  0  0  0  0  0  0  0  0
   -3.9603   -2.9735    5.1963 H   0  0  0  0  0  0  0  0  0  0  0  0
   -4.2947   -3.3100    3.4979 H   0  0  0  0  0  0  0  0  0  0  0  0
   -6.5629   -2.0789    3.6990 H   0  0  0  0  0  0  0  0  0  0  0  0
   -6.1558   -1.9183    5.4149 H   0  0  0  0  0  0  0  0  0  0  0  0
   -6.6334   -0.4991    4.4878 H   0  0  0  0  0  0  0  0  0  0  0  0
   -3.3260   -2.1480    1.7357 H   0  0  0  0  0  0  0  0  0  0  0  0
   -4.7357   -1.5342   -1.9778 H   0  0  0  0  0  0  0  0  0  0  0  0
    0.1604   -2.9354   -4.1709 H   0  0  0  0  0  0  0  0  0  0  0  0
   -1.1157   -3.5511   -6.1470 H   0  0  0  0  0  0  0  0  0  0  0  0
   -3.5877   -3.3293   -6.1680 H   0  0  0  0  0  0  0  0  0  0  0  0
   -4.7565   -2.4557   -4.1943 H   0  0  0  0  0  0  0  0  0  0  0  0
    3.4800   -0.3780    1.3325 H   0  0  0  0  0  0  0  0  0  0  0  0
    4.7527   -0.2381    3.2927 H   0  0  0  0  0  0  0  0  0  0  0  0
    3.3001    0.7832    3.3170 H   0  0  0  0  0  0  0  0  0  0  0  0
    4.6358    1.1161    4.4171 H   0  0  0  0  0  0  0  0  0  0  0  0
    4.9695    3.9007    1.9744 H   0  0  0  0  0  0  0  0  0  0  0  0
    3.4080    3.1956    2.4072 H   0  0  0  0  0  0  0  0  0  0  0  0
    4.6461    3.4512    3.6472 H   0  0  0  0  0  0  0  0  0  0  0  0
    6.7852    1.9645    3.6481 H   0  0  0  0  0  0  0  0  0  0  0  0
    7.0898    2.4453    1.9820 H   0  0  0  0  0  0  0  0  0  0  0  0
    6.9857    0.7300    2.3945 H   0  0  0  0  0  0  0  0  0  0  0  0
    5.9209    2.9303    0.0650 H   0  0  0  0  0  0  0  0  0  0  0  0
    5.8215    2.8048   -4.8198 H   0  0  0  0  0  0  0  0  0  0  0  0
    4.2700    2.1852   -4.2559 H   0  0  0  0  0  0  0  0  0  0  0  0
    5.7047    1.1385   -4.2539 H   0  0  0  0  0  0  0  0  0  0  0  0
    7.7032    3.1878   -3.3059 H   0  0  0  0  0  0  0  0  0  0  0  0
    7.5722    3.0334   -1.5564 H   0  0  0  0  0  0  0  0  0  0  0  0
    7.6155    1.5823   -2.5641 H   0  0  0  0  0  0  0  0  0  0  0  0
    4.0964    4.1310   -2.5616 H   0  0  0  0  0  0  0  0  0  0  0  0
    5.5945    4.7160   -3.3028 H   0  0  0  0  0  0  0  0  0  0  0  0
    5.4886    4.5404   -1.5532 H   0  0  0  0  0  0  0  0  0  0  0  0
    4.0235    0.3724   -2.8299 H   0  0  0  0  0  0  0  0  0  0  0  0
    4.5089   -2.5852   -1.3145 H   0  0  0  0  0  0  0  0  0  0  0  0
   -0.5561   -4.7567   -1.9393 H   0  0  0  0  0  0  0  0  0  0  0  0
    0.5970   -6.8701   -2.2888 H   0  0  0  0  0  0  0  0  0  0  0  0
    3.0771   -6.9734   -2.2437 H   0  0  0  0  0  0  0  0  0  0  0  0
    4.3799   -4.9361   -1.8137 H   0  0  0  0  0  0  0  0  0  0  0  0
  2  4  1  0  0  0  0
  2  1  2  0  0  0  0
  3  2  1  0  0  0  0
  3 54  1  0  0  0  0
  5  4  1  0  0  0  0
  6  5  1  0  0  0  0
  6  7  1  0  0  0  0
  7 20  1  0  0  0  0
  8  7  2  0  0  0  0
  8  9  1  0  0  0  0
  9 14  2  0  0  0  0
 10  9  1  0  0  0  0
 10 12  1  0  0  0  0
 11 58  1  0  0  0  0
 11 10  1  0  0  0  0
 12 59  1  0  0  0  0
 12 60  1  0  0  0  0
 13 10  1  0  0  0  0
 13 63  1  0  0  0  0
 14 15  1  0  0  0  0
 14 65  1  0  0  0  0
 15 16  1  0  0  0  0
 16 18  1  0  0  0  0
 16 19  1  0  0  0  0
 16 17  1  0  0  0  0
 17 68  1  0  0  0  0
 17 67  1  0  0  0  0
 18 70  1  0  0  0  0
 19 74  1  0  0  0  0
 19 73  1  0  0  0  0
 20 75  1  0  0  0  0
 20 15  2  0  0  0  0
 21  6  2  0  0  0  0
 22 23  1  0  0  0  0
 22 21  1  0  0  0  0
 23 28  1  0  0  0  0
 24 23  2  0  0  0  0
 25 24  1  0  0  0  0
 26 25  2  0  0  0  0
 26 27  1  0  0  0  0
 27 22  2  0  0  0  0
 28 29  1  0  0  0  0
 28  5  2  0  0  0  0
 29 30  2  0  0  0  0
 30 32  1  0  0  0  0
 30 31  1  0  0  0  0
 31  2  1  0  0  0  0
 32 33  1  0  0  0  0
 33 34  2  0  0  0  0
 34 35  1  0  0  0  0
 34 81  1  0  0  0  0
 35 36  1  0  0  0  0
 36 39  1  0  0  0  0
 36 38  1  0  0  0  0
 36 37  1  0  0  0  0
 37 84  1  0  0  0  0
 38 87  1  0  0  0  0
 39 88  1  0  0  0  0
 40 91  1  0  0  0  0
 40 35  2  0  0  0  0
 41 40  1  0  0  0  0
 42 44  1  0  0  0  0
 42 45  1  0  0  0  0
 42 41  1  0  0  0  0
 43 42  1  0  0  0  0
 44 96  1  0  0  0  0
 45100  1  0  0  0  0
 46 41  2  0  0  0  0
 46 33  1  0  0  0  0
 47102  1  0  0  0  0
 47 32  2  0  0  0  0
 48 47  1  0  0  0  0
 49 48  1  0  0  0  0
 49 29  1  0  0  0  0
 50 49  2  0  0  0  0
 51 52  2  0  0  0  0
 51 50  1  0  0  0  0
 52 53  1  0  0  0  0
 53106  1  0  0  0  0
 53 48  2  0  0  0  0
 55  8  1  0  0  0  0
 56 11  1  0  0  0  0
 57 11  1  0  0  0  0
 61 12  1  0  0  0  0
 62 13  1  0  0  0  0
 64 13  1  0  0  0  0
 66 17  1  0  0  0  0
 69 18  1  0  0  0  0
 71 18  1  0  0  0  0
 72 19  1  0  0  0  0
 76 21  1  0  0  0  0
 77 24  1  0  0  0  0
 78 25  1  0  0  0  0
 79 26  1  0  0  0  0
 80 27  1  0  0  0  0
 82 37  1  0  0  0  0
 83 37  1  0  0  0  0
 85 38  1  0  0  0  0
 86 38  1  0  0  0  0
 89 39  1  0  0  0  0
 90 39  1  0  0  0  0
 92 43  1  0  0  0  0
 93 43  1  0  0  0  0
 94 43  1  0  0  0  0
 95 44  1  0  0  0  0
 97 44  1  0  0  0  0
 98 45  1  0  0  0  0
 99 45  1  0  0  0  0
101 46  1  0  0  0  0
103 50  1  0  0  0  0
104 51  1  0  0  0  0
105 52  1  0  0  0  0
M  END
$$$$
