O=P1(O)OC2=C(C3=CC=C(S(F)(F)(F)(F)F)C=C3)C=C4C(C=CC=C4)=C2C5=C(O1)C(C6=CC=C(S(F)(F)(F)(F)F)C=C6)=CC7=C5C=CC=C7
 OpenBabel09032010373D

 68 66  0  0  0  0  0  0  0  0999 V2000
   -0.5158   -3.0624   -0.8255 O   0  0  0  0  0  0  0  0  0  0  0  0
   -0.1068   -1.7094   -1.3044 P   0  0  0  0  0  0  0  0  0  0  0  0
    0.2377   -1.7234   -2.9432 O   0  0  0  0  0  0  0  0  0  0  0  0
   -1.4030   -0.5584   -1.1034 O   0  0  0  0  0  0  0  0  0  0  0  0
   -1.6026    0.1098    0.0862 C   0  0  0  0  0  0  0  0  0  0  0  0
   -2.8341    0.1912    0.6524 C   0  0  0  0  0  0  0  0  0  0  0  0
   -3.9918   -0.3801   -0.0173 C   0  0  0  0  0  0  0  0  0  0  0  0
   -5.1298    0.4302   -0.0999 C   0  0  0  0  0  0  0  0  0  0  0  0
   -6.2980   -0.0406   -0.7265 C   0  0  0  0  0  0  0  0  0  0  0  0
   -6.3771   -1.2545   -1.2625 C   0  0  0  0  0  0  0  0  0  0  0  0
   -7.9684   -1.8805   -2.3637 S   0  0  0  0  0  0  0  0  0  0  0  0
   -9.5589   -0.5607   -2.8331 F   0  0  0  0  0  0  0  0  0  0  0  0
   -8.7030   -3.1321   -0.1681 F   0  0  0  0  0  0  0  0  0  0  0  0
   -8.5936   -4.0216   -2.4023 F   0  0  0  0  0  0  0  0  0  0  0  0
   -8.0179   -2.1112   -3.7518 F   0  0  0  0  0  0  0  0  0  0  0  0
   -9.9981   -1.1962   -0.6433 F   0  0  0  0  0  0  0  0  0  0  0  0
   -5.2452   -2.0314   -1.1648 C   0  0  0  0  0  0  0  0  0  0  0  0
   -4.0486   -1.6205   -0.5528 C   0  0  0  0  0  0  0  0  0  0  0  0
   -3.0333    0.8270    1.8677 C   0  0  0  0  0  0  0  0  0  0  0  0
   -1.9752    1.3979    2.5553 C   0  0  0  0  0  0  0  0  0  0  0  0
   -0.6568    1.3531    2.0193 C   0  0  0  0  0  0  0  0  0  0  0  0
    0.4418    1.7239    2.7559 C   0  0  0  0  0  0  0  0  0  0  0  0
    0.2603    2.1831    4.0481 C   0  0  0  0  0  0  0  0  0  0  0  0
   -1.0162    2.2582    4.5838 C   0  0  0  0  0  0  0  0  0  0  0  0
   -2.1049    1.8669    3.8386 C   0  0  0  0  0  0  0  0  0  0  0  0
   -0.5563    0.7309    0.8216 C   0  0  0  0  0  0  0  0  0  0  0  0
    0.7785    1.0494    0.2310 C   0  0  0  0  0  0  0  0  0  0  0  0
    1.7017    0.0642   -0.1905 C   0  0  0  0  0  0  0  0  0  0  0  0
    1.3408   -1.2595   -0.4222 O   0  0  0  0  0  0  0  0  0  0  0  0
    2.9711    0.4831   -0.3907 C   0  0  0  0  0  0  0  0  0  0  0  0
    4.0013   -0.4556   -0.7857 C   0  0  0  0  0  0  0  0  0  0  0  0
    5.1921   -0.4277   -0.0979 C   0  0  0  0  0  0  0  0  0  0  0  0
    6.2413   -1.3047   -0.4338 C   0  0  0  0  0  0  0  0  0  0  0  0
    6.1340   -2.1946   -1.4247 C   0  0  0  0  0  0  0  0  0  0  0  0
    7.6827   -3.3435   -2.0542 S   0  0  0  0  0  0  0  0  0  0  0  0
    8.3855   -3.1411   -3.3548 F   0  0  0  0  0  0  0  0  0  0  0  0
    8.6369   -4.2783    0.2624 F   0  0  0  0  0  0  0  0  0  0  0  0
    7.4313   -5.3188   -2.9789 F   0  0  0  0  0  0  0  0  0  0  0  0
    6.6787   -5.2351   -0.6932 F   0  0  0  0  0  0  0  0  0  0  0  0
    9.6654   -2.9801   -1.3594 F   0  0  0  0  0  0  0  0  0  0  0  0
    4.9315   -2.2009   -2.0926 C   0  0  0  0  0  0  0  0  0  0  0  0
    3.8462   -1.3518   -1.8063 C   0  0  0  0  0  0  0  0  0  0  0  0
    3.3186    1.8312   -0.1966 C   0  0  0  0  0  0  0  0  0  0  0  0
    2.3700    2.7627    0.1961 C   0  0  0  0  0  0  0  0  0  0  0  0
    1.0234    2.3657    0.4220 C   0  0  0  0  0  0  0  0  0  0  0  0
    0.0290    3.2921    0.6133 C   0  0  0  0  0  0  0  0  0  0  0  0
    0.3480    4.6415    0.6160 C   0  0  0  0  0  0  0  0  0  0  0  0
    1.6604    5.0408    0.4204 C   0  0  0  0  0  0  0  0  0  0  0  0
    2.6464    4.1071    0.2128 C   0  0  0  0  0  0  0  0  0  0  0  0
   -0.6117   -1.8864   -3.4243 H   0  0  0  0  0  0  0  0  0  0  0  0
   -5.1893    1.4129    0.2885 H   0  0  0  0  0  0  0  0  0  0  0  0
   -7.1489    0.6085   -0.7698 H   0  0  0  0  0  0  0  0  0  0  0  0
   -5.3735   -3.0210   -1.6129 H   0  0  0  0  0  0  0  0  0  0  0  0
   -3.2342   -2.2733   -0.5200 H   0  0  0  0  0  0  0  0  0  0  0  0
   -4.0193    0.8782    2.2822 H   0  0  0  0  0  0  0  0  0  0  0  0
    1.4820    1.6011    2.5342 H   0  0  0  0  0  0  0  0  0  0  0  0
    1.0991    2.4866    4.6442 H   0  0  0  0  0  0  0  0  0  0  0  0
   -1.1224    2.6420    5.6007 H   0  0  0  0  0  0  0  0  0  0  0  0
   -3.0870    1.9371    4.2924 H   0  0  0  0  0  0  0  0  0  0  0  0
    5.4144    0.2347    0.7194 H   0  0  0  0  0  0  0  0  0  0  0  0
    7.1550   -1.2561    0.1216 H   0  0  0  0  0  0  0  0  0  0  0  0
    4.8977   -2.9557   -2.8865 H   0  0  0  0  0  0  0  0  0  0  0  0
    2.9907   -1.4673   -2.4073 H   0  0  0  0  0  0  0  0  0  0  0  0
    4.3323    2.0955   -0.3642 H   0  0  0  0  0  0  0  0  0  0  0  0
   -1.0327    3.1557    0.6469 H   0  0  0  0  0  0  0  0  0  0  0  0
   -0.3983    5.4046    0.7712 H   0  0  0  0  0  0  0  0  0  0  0  0
    1.9320    6.0708    0.4345 H   0  0  0  0  0  0  0  0  0  0  0  0
    3.6946    4.3968    0.0518 H   0  0  0  0  0  0  0  0  0  0  0  0
  2  4  1  0  0  0  0
  2  1  2  0  0  0  0
  2 29  1  0  0  0  0
  3  2  1  0  0  0  0
  4  5  1  0  0  0  0
  5  6  2  0  0  0  0
  5 26  1  0  0  0  0
  6 19  1  0  0  0  0
  7  6  1  0  0  0  0
  8  7  1  0  0  0  0
  8 51  1  0  0  0  0
  9  8  2  0  0  0  0
 10 17  2  0  0  0  0
 10  9  1  0  0  0  0
 11 10  1  0  0  0  0
 15 11  1  0  0  0  0
 17 18  1  0  0  0  0
 18 54  1  0  0  0  0
 18  7  2  0  0  0  0
 19 55  1  0  0  0  0
 19 20  2  0  0  0  0
 20 25  1  0  0  0  0
 21 20  1  0  0  0  0
 21 22  1  0  0  0  0
 22 23  2  0  0  0  0
 23 24  1  0  0  0  0
 23 57  1  0  0  0  0
 24 58  1  0  0  0  0
 25 59  1  0  0  0  0
 25 24  2  0  0  0  0
 26 21  2  0  0  0  0
 27 45  1  0  0  0  0
 27 26  1  0  0  0  0
 28 27  2  0  0  0  0
 29 28  1  0  0  0  0
 30 43  2  0  0  0  0
 30 28  1  0  0  0  0
 31 30  1  0  0  0  0
 31 32  2  0  0  0  0
 32 60  1  0  0  0  0
 33 32  1  0  0  0  0
 33 61  1  0  0  0  0
 34 33  2  0  0  0  0
 35 34  1  0  0  0  0
 36 35  1  0  0  0  0
 41 42  2  0  0  0  0
 41 34  1  0  0  0  0
 42 31  1  0  0  0  0
 43 44  1  0  0  0  0
 44 49  2  0  0  0  0
 44 45  1  0  0  0  0
 45 46  2  0  0  0  0
 46 47  1  0  0  0  0
 46 65  1  0  0  0  0
 47 66  1  0  0  0  0
 48 67  1  0  0  0  0
 48 47  2  0  0  0  0
 49 48  1  0  0  0  0
 50  3  1  0  0  0  0
 52  9  1  0  0  0  0
 53 17  1  0  0  0  0
 56 22  1  0  0  0  0
 62 41  1  0  0  0  0
 63 42  1  0  0  0  0
 64 43  1  0  0  0  0
 68 49  1  0  0  0  0
M  RAD  8  12   2  13   2  14   2  16   2  37   2  38   2  39   2  40   2
M  END
$$$$
