O=P1(O)OC2=C(C3=CC=C(C4=CC=C(C=CC=C5)C5=C4)C=C3)C=C6C(C=CC=C6)=C2C7=C(O1)C(C8=CC=C(C9=CC(C=CC=C%10)=C%10C=C9)C=C8)=CC%11=C7C=CC=C%11
 OpenBabel09032010373D

 90100  0  0  0  0  0  0  0  0999 V2000
    0.4576   -1.3384   -0.9146 O   0  0  0  0  0  0  0  0  0  0  0  0
   -0.0817   -0.0569   -0.3594 P   0  0  0  0  0  0  0  0  0  0  0  0
   -0.8361   -0.2978    1.0411 O   0  0  0  0  0  0  0  0  0  0  0  0
   -1.2010    0.6530   -1.2727 O   0  0  0  0  0  0  0  0  0  0  0  0
   -1.6133    1.9283   -0.9537 C   0  0  0  0  0  0  0  0  0  0  0  0
   -2.9407    2.0659   -0.5081 C   0  0  0  0  0  0  0  0  0  0  0  0
   -3.8258    0.9058   -0.3163 C   0  0  0  0  0  0  0  0  0  0  0  0
   -4.2293    0.1122   -1.3985 C   0  0  0  0  0  0  0  0  0  0  0  0
   -5.0370   -1.0132   -1.2020 C   0  0  0  0  0  0  0  0  0  0  0  0
   -5.4690   -1.3779    0.0817 C   0  0  0  0  0  0  0  0  0  0  0  0
   -6.2938   -2.5767    0.2922 C   0  0  0  0  0  0  0  0  0  0  0  0
   -5.8572   -3.8339   -0.1482 C   0  0  0  0  0  0  0  0  0  0  0  0
   -6.6302   -4.9789    0.0626 C   0  0  0  0  0  0  0  0  0  0  0  0
   -7.8667   -4.8970    0.7174 C   0  0  0  0  0  0  0  0  0  0  0  0
   -8.6560   -6.0375    0.9367 C   0  0  0  0  0  0  0  0  0  0  0  0
   -9.8855   -5.9384    1.5895 C   0  0  0  0  0  0  0  0  0  0  0  0
  -10.3406   -4.6993    2.0301 C   0  0  0  0  0  0  0  0  0  0  0  0
   -9.5670   -3.5566    1.8197 C   0  0  0  0  0  0  0  0  0  0  0  0
   -8.3269   -3.6392    1.1657 C   0  0  0  0  0  0  0  0  0  0  0  0
   -7.5341   -2.4982    0.9478 C   0  0  0  0  0  0  0  0  0  0  0  0
   -5.0771   -0.5737    1.1618 C   0  0  0  0  0  0  0  0  0  0  0  0
   -4.2676    0.5501    0.9661 C   0  0  0  0  0  0  0  0  0  0  0  0
   -3.4012    3.3513   -0.2213 C   0  0  0  0  0  0  0  0  0  0  0  0
   -2.5664    4.4670   -0.3325 C   0  0  0  0  0  0  0  0  0  0  0  0
   -1.2221    4.3146   -0.7681 C   0  0  0  0  0  0  0  0  0  0  0  0
   -0.4224    5.4862   -0.7454 C   0  0  0  0  0  0  0  0  0  0  0  0
   -0.9300    6.7384   -0.3874 C   0  0  0  0  0  0  0  0  0  0  0  0
   -2.2588    6.8631   -0.0172 C   0  0  0  0  0  0  0  0  0  0  0  0
   -3.0688    5.7321    0.0170 C   0  0  0  0  0  0  0  0  0  0  0  0
   -0.7240    3.0142   -1.1472 C   0  0  0  0  0  0  0  0  0  0  0  0
    0.6011    2.7845   -1.6886 C   0  0  0  0  0  0  0  0  0  0  0  0
    1.4663    1.8441   -1.0730 C   0  0  0  0  0  0  0  0  0  0  0  0
    0.9974    1.0904   -0.0186 O   0  0  0  0  0  0  0  0  0  0  0  0
    2.8143    1.6734   -1.4307 C   0  0  0  0  0  0  0  0  0  0  0  0
    3.7071    0.7506   -0.7195 C   0  0  0  0  0  0  0  0  0  0  0  0
    4.5452    1.2134    0.3037 C   0  0  0  0  0  0  0  0  0  0  0  0
    5.4014    0.3374    0.9806 C   0  0  0  0  0  0  0  0  0  0  0  0
    5.4451   -1.0269    0.6560 C   0  0  0  0  0  0  0  0  0  0  0  0
    6.3343   -1.9513    1.3779 C   0  0  0  0  0  0  0  0  0  0  0  0
    7.7139   -1.7010    1.4809 C   0  0  0  0  0  0  0  0  0  0  0  0
    8.5753   -2.5743    2.1708 C   0  0  0  0  0  0  0  0  0  0  0  0
    9.9544   -2.3220    2.2693 C   0  0  0  0  0  0  0  0  0  0  0  0
   10.7936   -3.1985    2.9586 C   0  0  0  0  0  0  0  0  0  0  0  0
   10.2665   -4.3385    3.5577 C   0  0  0  0  0  0  0  0  0  0  0  0
    8.8994   -4.6047    3.4684 C   0  0  0  0  0  0  0  0  0  0  0  0
    8.0422   -3.7325    2.7782 C   0  0  0  0  0  0  0  0  0  0  0  0
    6.6672   -3.9860    2.6782 C   0  0  0  0  0  0  0  0  0  0  0  0
    5.8276   -3.1078    1.9870 C   0  0  0  0  0  0  0  0  0  0  0  0
    4.6061   -1.4840   -0.3716 C   0  0  0  0  0  0  0  0  0  0  0  0
    3.7517   -0.6086   -1.0513 C   0  0  0  0  0  0  0  0  0  0  0  0
    3.3102    2.4267   -2.4957 C   0  0  0  0  0  0  0  0  0  0  0  0
    2.4909    3.3042   -3.2112 C   0  0  0  0  0  0  0  0  0  0  0  0
    1.1327    3.4810   -2.8335 C   0  0  0  0  0  0  0  0  0  0  0  0
    0.3533    4.3209   -3.6691 C   0  0  0  0  0  0  0  0  0  0  0  0
    0.8911    4.9944   -4.7690 C   0  0  0  0  0  0  0  0  0  0  0  0
    2.2307    4.8381   -5.0855 C   0  0  0  0  0  0  0  0  0  0  0  0
    3.0233    3.9931   -4.3142 C   0  0  0  0  0  0  0  0  0  0  0  0
   -1.3450   -1.1286    1.0088 H   0  0  0  0  0  0  0  0  0  0  0  0
   -3.9071    0.3620   -2.4080 H   0  0  0  0  0  0  0  0  0  0  0  0
   -5.3322   -1.6046   -2.0670 H   0  0  0  0  0  0  0  0  0  0  0  0
   -4.8975   -3.9355   -0.6512 H   0  0  0  0  0  0  0  0  0  0  0  0
   -6.2535   -5.9370   -0.2878 H   0  0  0  0  0  0  0  0  0  0  0  0
   -8.3171   -7.0142    0.5989 H   0  0  0  0  0  0  0  0  0  0  0  0
  -10.4867   -6.8287    1.7527 H   0  0  0  0  0  0  0  0  0  0  0  0
  -11.2982   -4.6200    2.5379 H   0  0  0  0  0  0  0  0  0  0  0  0
   -9.9430   -2.5983    2.1712 H   0  0  0  0  0  0  0  0  0  0  0  0
   -7.8938   -1.5279    1.2868 H   0  0  0  0  0  0  0  0  0  0  0  0
   -5.3844   -0.8288    2.1743 H   0  0  0  0  0  0  0  0  0  0  0  0
   -3.9634    1.1370    1.8312 H   0  0  0  0  0  0  0  0  0  0  0  0
   -4.4293    3.4777    0.1171 H   0  0  0  0  0  0  0  0  0  0  0  0
    0.6352    5.4387   -0.9986 H   0  0  0  0  0  0  0  0  0  0  0  0
   -0.2786    7.6083   -0.3939 H   0  0  0  0  0  0  0  0  0  0  0  0
   -2.6612    7.8325    0.2636 H   0  0  0  0  0  0  0  0  0  0  0  0
   -4.1030    5.8462    0.3372 H   0  0  0  0  0  0  0  0  0  0  0  0
    4.5280    2.2631    0.5895 H   0  0  0  0  0  0  0  0  0  0  0  0
    6.0250    0.7287    1.7819 H   0  0  0  0  0  0  0  0  0  0  0  0
    8.1272   -0.8137    1.0041 H   0  0  0  0  0  0  0  0  0  0  0  0
   10.3852   -1.4364    1.8074 H   0  0  0  0  0  0  0  0  0  0  0  0
   11.8580   -2.9897    3.0267 H   0  0  0  0  0  0  0  0  0  0  0  0
   10.9185   -5.0221    4.0949 H   0  0  0  0  0  0  0  0  0  0  0  0
    8.5062   -5.5011    3.9427 H   0  0  0  0  0  0  0  0  0  0  0  0
    6.2338   -4.8699    3.1406 H   0  0  0  0  0  0  0  0  0  0  0  0
    4.7630   -3.3294    1.9382 H   0  0  0  0  0  0  0  0  0  0  0  0
    4.6110   -2.5335   -0.6588 H   0  0  0  0  0  0  0  0  0  0  0  0
    3.1112   -1.0030   -1.8385 H   0  0  0  0  0  0  0  0  0  0  0  0
    4.3531    2.2997   -2.7856 H   0  0  0  0  0  0  0  0  0  0  0  0
   -0.7102    4.4555   -3.4792 H   0  0  0  0  0  0  0  0  0  0  0  0
    0.2554    5.6333   -5.3763 H   0  0  0  0  0  0  0  0  0  0  0  0
    2.6562    5.3568   -5.9401 H   0  0  0  0  0  0  0  0  0  0  0  0
    4.0676    3.8641   -4.5933 H   0  0  0  0  0  0  0  0  0  0  0  0
  1  2  2  0  0  0  0
  2 33  1  0  0  0  0
  2  3  1  0  0  0  0
  4  5  1  0  0  0  0
  4  2  1  0  0  0  0
  5  6  1  0  0  0  0
  6  7  1  0  0  0  0
  6 23  2  0  0  0  0
  7 22  2  0  0  0  0
  8  9  2  0  0  0  0
  8  7  1  0  0  0  0
  9 10  1  0  0  0  0
 10 11  1  0  0  0  0
 10 21  2  0  0  0  0
 11 20  2  0  0  0  0
 12 13  2  0  0  0  0
 12 11  1  0  0  0  0
 13 14  1  0  0  0  0
 14 15  2  0  0  0  0
 14 19  1  0  0  0  0
 15 16  1  0  0  0  0
 16 64  1  0  0  0  0
 16 17  2  0  0  0  0
 17 65  1  0  0  0  0
 18 17  1  0  0  0  0
 18 66  1  0  0  0  0
 19 18  2  0  0  0  0
 20 19  1  0  0  0  0
 20 67  1  0  0  0  0
 21 68  1  0  0  0  0
 22 21  1  0  0  0  0
 22 69  1  0  0  0  0
 23 70  1  0  0  0  0
 24 23  1  0  0  0  0
 24 29  2  0  0  0  0
 25 26  2  0  0  0  0
 25 24  1  0  0  0  0
 26 27  1  0  0  0  0
 27 28  2  0  0  0  0
 28 29  1  0  0  0  0
 28 73  1  0  0  0  0
 29 74  1  0  0  0  0
 30  5  2  0  0  0  0
 30 25  1  0  0  0  0
 31 30  1  0  0  0  0
 31 32  2  0  0  0  0
 32 33  1  0  0  0  0
 34 32  1  0  0  0  0
 34 35  1  0  0  0  0
 35 36  1  0  0  0  0
 36 75  1  0  0  0  0
 36 37  2  0  0  0  0
 37 76  1  0  0  0  0
 38 37  1  0  0  0  0
 38 39  1  0  0  0  0
 39 40  2  0  0  0  0
 39 48  1  0  0  0  0
 40 41  1  0  0  0  0
 41 42  2  0  0  0  0
 41 46  1  0  0  0  0
 42 43  1  0  0  0  0
 43 79  1  0  0  0  0
 43 44  2  0  0  0  0
 44 80  1  0  0  0  0
 45 44  1  0  0  0  0
 45 81  1  0  0  0  0
 46 45  2  0  0  0  0
 47 46  1  0  0  0  0
 47 82  1  0  0  0  0
 48 47  2  0  0  0  0
 49 38  2  0  0  0  0
 50 35  2  0  0  0  0
 50 49  1  0  0  0  0
 51 34  2  0  0  0  0
 52 53  1  0  0  0  0
 52 51  1  0  0  0  0
 53 31  1  0  0  0  0
 54 87  1  0  0  0  0
 54 53  2  0  0  0  0
 55 54  1  0  0  0  0
 56 55  2  0  0  0  0
 56 57  1  0  0  0  0
 57 52  2  0  0  0  0
 58  3  1  0  0  0  0
 59  8  1  0  0  0  0
 60  9  1  0  0  0  0
 61 12  1  0  0  0  0
 62 13  1  0  0  0  0
 63 15  1  0  0  0  0
 71 26  1  0  0  0  0
 72 27  1  0  0  0  0
 77 40  1  0  0  0  0
 78 42  1  0  0  0  0
 83 48  1  0  0  0  0
 84 49  1  0  0  0  0
 85 50  1  0  0  0  0
 86 51  1  0  0  0  0
 88 55  1  0  0  0  0
 89 56  1  0  0  0  0
 90 57  1  0  0  0  0
M  END
$$$$
