O=P1(O)OC2=C(C3=C(C=CC4=CC=CC(C=C5)=C46)C6=C5C=C3)C=C7C(C=CC=C7)=C2C8=C(O1)C(C9=CC=C(C=C%10)C%11=C9C=CC%12=CC=CC%10=C%11%12)=CC%13=C8C=CC=C%13
 OpenBabel09032010373D

 86 98  0  0  0  0  0  0  0  0999 V2000
    0.1722    2.1225   -1.8984 O   0  0  0  0  0  0  0  0  0  0  0  0
   -0.2844    1.0570   -0.9511 P   0  0  0  0  0  0  0  0  0  0  0  0
   -0.9866   -0.1706   -1.7116 O   0  0  0  0  0  0  0  0  0  0  0  0
    0.8608    0.3347   -0.0779 O   0  0  0  0  0  0  0  0  0  0  0  0
    1.3431    1.0170    1.0150 C   0  0  0  0  0  0  0  0  0  0  0  0
    2.6673    1.4793    0.9432 C   0  0  0  0  0  0  0  0  0  0  0  0
    3.5213    1.2388   -0.2349 C   0  0  0  0  0  0  0  0  0  0  0  0
    4.3364    0.0779   -0.3594 C   0  0  0  0  0  0  0  0  0  0  0  0
    4.3837   -0.9412    0.6165 C   0  0  0  0  0  0  0  0  0  0  0  0
    5.1936   -2.0690    0.4659 C   0  0  0  0  0  0  0  0  0  0  0  0
    5.9918   -2.2242   -0.6693 C   0  0  0  0  0  0  0  0  0  0  0  0
    6.8079   -3.3529   -0.8321 C   0  0  0  0  0  0  0  0  0  0  0  0
    7.5997   -3.4973   -1.9693 C   0  0  0  0  0  0  0  0  0  0  0  0
    7.5864   -2.5150   -2.9577 C   0  0  0  0  0  0  0  0  0  0  0  0
    6.7777   -1.3766   -2.8225 C   0  0  0  0  0  0  0  0  0  0  0  0
    6.7521   -0.3862   -3.8106 C   0  0  0  0  0  0  0  0  0  0  0  0
    5.9402    0.7399   -3.6675 C   0  0  0  0  0  0  0  0  0  0  0  0
    5.9712   -1.2253   -1.6686 C   0  0  0  0  0  0  0  0  0  0  0  0
    5.1452   -0.0790   -1.5155 C   0  0  0  0  0  0  0  0  0  0  0  0
    5.1364    0.9059   -2.5318 C   0  0  0  0  0  0  0  0  0  0  0  0
    4.3228    2.0338   -2.3926 C   0  0  0  0  0  0  0  0  0  0  0  0
    3.5284    2.1981   -1.2601 C   0  0  0  0  0  0  0  0  0  0  0  0
    3.1808    2.1741    2.0391 C   0  0  0  0  0  0  0  0  0  0  0  0
    2.4001    2.4262    3.1704 C   0  0  0  0  0  0  0  0  0  0  0  0
    1.0666    1.9400    3.2403 C   0  0  0  0  0  0  0  0  0  0  0  0
    0.3209    2.3204    4.3852 C   0  0  0  0  0  0  0  0  0  0  0  0
    0.8713    3.0747    5.4250 C   0  0  0  0  0  0  0  0  0  0  0  0
    2.1897    3.4938    5.3498 C   0  0  0  0  0  0  0  0  0  0  0  0
    2.9463    3.1764    4.2256 C   0  0  0  0  0  0  0  0  0  0  0  0
    0.5222    1.1530    2.1605 C   0  0  0  0  0  0  0  0  0  0  0  0
   -0.7734    0.5041    2.2047 C   0  0  0  0  0  0  0  0  0  0  0  0
   -1.7216    0.7305    1.1771 C   0  0  0  0  0  0  0  0  0  0  0  0
   -1.3982    1.5376    0.1090 O   0  0  0  0  0  0  0  0  0  0  0  0
   -3.0442    0.2522    1.2157 C   0  0  0  0  0  0  0  0  0  0  0  0
   -4.0182    0.5757    0.1554 C   0  0  0  0  0  0  0  0  0  0  0  0
   -4.6328    1.8391    0.1875 C   0  0  0  0  0  0  0  0  0  0  0  0
   -5.5381    2.2246   -0.7973 C   0  0  0  0  0  0  0  0  0  0  0  0
   -5.8527    1.3585   -1.8470 C   0  0  0  0  0  0  0  0  0  0  0  0
   -6.7527    1.7490   -2.8465 C   0  0  0  0  0  0  0  0  0  0  0  0
   -7.0617    0.8920   -3.9027 C   0  0  0  0  0  0  0  0  0  0  0  0
   -5.2519    0.0774   -1.9019 C   0  0  0  0  0  0  0  0  0  0  0  0
   -4.3348   -0.3281   -0.8976 C   0  0  0  0  0  0  0  0  0  0  0  0
   -3.7686   -1.6168   -1.0097 C   0  0  0  0  0  0  0  0  0  0  0  0
   -4.0867   -2.4737   -2.0658 C   0  0  0  0  0  0  0  0  0  0  0  0
   -4.9846   -2.0751   -3.0576 C   0  0  0  0  0  0  0  0  0  0  0  0
   -5.3077   -2.9230   -4.1269 C   0  0  0  0  0  0  0  0  0  0  0  0
   -6.1953   -2.5065   -5.1159 C   0  0  0  0  0  0  0  0  0  0  0  0
   -6.7777   -1.2428   -5.0447 C   0  0  0  0  0  0  0  0  0  0  0  0
   -6.4789   -0.3774   -3.9835 C   0  0  0  0  0  0  0  0  0  0  0  0
   -5.5722   -0.7919   -2.9790 C   0  0  0  0  0  0  0  0  0  0  0  0
   -3.4316   -0.5297    2.3039 C   0  0  0  0  0  0  0  0  0  0  0  0
   -2.5254   -0.8676    3.3118 C   0  0  0  0  0  0  0  0  0  0  0  0
   -1.1909   -0.3796    3.2668 C   0  0  0  0  0  0  0  0  0  0  0  0
   -0.3184   -0.8536    4.2799 C   0  0  0  0  0  0  0  0  0  0  0  0
   -0.7472   -1.6965    5.3091 C   0  0  0  0  0  0  0  0  0  0  0  0
   -2.0672   -2.1147    5.3534 C   0  0  0  0  0  0  0  0  0  0  0  0
   -2.9481   -1.7078    4.3558 C   0  0  0  0  0  0  0  0  0  0  0  0
   -1.5962    0.1386   -2.4074 H   0  0  0  0  0  0  0  0  0  0  0  0
    3.7766   -0.8732    1.5168 H   0  0  0  0  0  0  0  0  0  0  0  0
    5.1893   -2.8256    1.2473 H   0  0  0  0  0  0  0  0  0  0  0  0
    6.8312   -4.1302   -0.0716 H   0  0  0  0  0  0  0  0  0  0  0  0
    8.2269   -4.3769   -2.0858 H   0  0  0  0  0  0  0  0  0  0  0  0
    8.2137   -2.6466   -3.8371 H   0  0  0  0  0  0  0  0  0  0  0  0
    7.3636   -0.4828   -4.7050 H   0  0  0  0  0  0  0  0  0  0  0  0
    5.9411    1.4895   -4.4560 H   0  0  0  0  0  0  0  0  0  0  0  0
    4.2917    2.7966   -3.1671 H   0  0  0  0  0  0  0  0  0  0  0  0
    2.8967    3.0823   -1.1859 H   0  0  0  0  0  0  0  0  0  0  0  0
    4.2067    2.5391    1.9933 H   0  0  0  0  0  0  0  0  0  0  0  0
   -0.7271    2.0408    4.4796 H   0  0  0  0  0  0  0  0  0  0  0  0
    0.2618    3.3357    6.2862 H   0  0  0  0  0  0  0  0  0  0  0  0
    2.6250    4.0811    6.1537 H   0  0  0  0  0  0  0  0  0  0  0  0
    3.9730    3.5349    4.1729 H   0  0  0  0  0  0  0  0  0  0  0  0
   -4.3950    2.5390    0.9873 H   0  0  0  0  0  0  0  0  0  0  0  0
   -5.9879    3.2133   -0.7381 H   0  0  0  0  0  0  0  0  0  0  0  0
   -7.2222    2.7301   -2.8153 H   0  0  0  0  0  0  0  0  0  0  0  0
   -7.7633    1.2274   -4.6637 H   0  0  0  0  0  0  0  0  0  0  0  0
   -3.0495   -1.9729   -0.2736 H   0  0  0  0  0  0  0  0  0  0  0  0
   -3.6159   -3.4537   -2.1046 H   0  0  0  0  0  0  0  0  0  0  0  0
   -4.8727   -3.9178   -4.1998 H   0  0  0  0  0  0  0  0  0  0  0  0
   -6.4367   -3.1694   -5.9426 H   0  0  0  0  0  0  0  0  0  0  0  0
   -7.4697   -0.9379   -5.8265 H   0  0  0  0  0  0  0  0  0  0  0  0
   -4.4555   -0.9004    2.3456 H   0  0  0  0  0  0  0  0  0  0  0  0
    0.7351   -0.5786    4.2746 H   0  0  0  0  0  0  0  0  0  0  0  0
   -0.0419   -2.0264    6.0674 H   0  0  0  0  0  0  0  0  0  0  0  0
   -2.4082   -2.7703    6.1501 H   0  0  0  0  0  0  0  0  0  0  0  0
   -3.9751   -2.0678    4.3923 H   0  0  0  0  0  0  0  0  0  0  0  0
  1  2  2  0  0  0  0
  2  4  1  0  0  0  0
  2 33  1  0  0  0  0
  3  2  1  0  0  0  0
  4  5  1  0  0  0  0
  5 30  1  0  0  0  0
  6  5  2  0  0  0  0
  6 23  1  0  0  0  0
  7  6  1  0  0  0  0
  8  7  1  0  0  0  0
  8  9  1  0  0  0  0
  9 59  1  0  0  0  0
 10  9  2  0  0  0  0
 10 60  1  0  0  0  0
 11 10  1  0  0  0  0
 12 11  1  0  0  0  0
 12 61  1  0  0  0  0
 13 12  2  0  0  0  0
 14 15  2  0  0  0  0
 14 13  1  0  0  0  0
 15 18  1  0  0  0  0
 16 17  2  0  0  0  0
 16 15  1  0  0  0  0
 17 20  1  0  0  0  0
 18 19  1  0  0  0  0
 18 11  2  0  0  0  0
 19  8  2  0  0  0  0
 20 21  2  0  0  0  0
 20 19  1  0  0  0  0
 21 22  1  0  0  0  0
 22 67  1  0  0  0  0
 22  7  2  0  0  0  0
 23 24  2  0  0  0  0
 24 25  1  0  0  0  0
 24 29  1  0  0  0  0
 25 26  1  0  0  0  0
 26 69  1  0  0  0  0
 26 27  2  0  0  0  0
 27 70  1  0  0  0  0
 28 27  1  0  0  0  0
 28 71  1  0  0  0  0
 29 28  2  0  0  0  0
 30 31  1  0  0  0  0
 30 25  2  0  0  0  0
 31 53  2  0  0  0  0
 32 34  2  0  0  0  0
 32 31  1  0  0  0  0
 33 32  1  0  0  0  0
 34 51  1  0  0  0  0
 35 36  1  0  0  0  0
 35 34  1  0  0  0  0
 36 73  1  0  0  0  0
 37 74  1  0  0  0  0
 37 36  2  0  0  0  0
 38 37  1  0  0  0  0
 39 75  1  0  0  0  0
 39 38  2  0  0  0  0
 40 39  1  0  0  0  0
 41 38  1  0  0  0  0
 41 42  1  0  0  0  0
 42 35  2  0  0  0  0
 43 42  1  0  0  0  0
 43 77  1  0  0  0  0
 44 43  2  0  0  0  0
 45 50  1  0  0  0  0
 45 44  1  0  0  0  0
 46 45  2  0  0  0  0
 47 48  2  0  0  0  0
 47 46  1  0  0  0  0
 48 49  1  0  0  0  0
 49 40  2  0  0  0  0
 49 50  1  0  0  0  0
 50 41  2  0  0  0  0
 51 82  1  0  0  0  0
 51 52  2  0  0  0  0
 52 57  1  0  0  0  0
 53 52  1  0  0  0  0
 53 54  1  0  0  0  0
 54 55  2  0  0  0  0
 55 56  1  0  0  0  0
 55 84  1  0  0  0  0
 56 85  1  0  0  0  0
 57 86  1  0  0  0  0
 57 56  2  0  0  0  0
 58  3  1  0  0  0  0
 62 13  1  0  0  0  0
 63 14  1  0  0  0  0
 64 16  1  0  0  0  0
 65 17  1  0  0  0  0
 66 21  1  0  0  0  0
 68 23  1  0  0  0  0
 72 29  1  0  0  0  0
 76 40  1  0  0  0  0
 78 44  1  0  0  0  0
 79 46  1  0  0  0  0
 80 47  1  0  0  0  0
 81 48  1  0  0  0  0
 83 54  1  0  0  0  0
M  END
$$$$
