O=P1(O)OC2=C(C3=CC(C4=CC(C(F)(F)F)=CC(C(F)(F)F)=C4)=CC(C5=CC(C(F)(F)F)=CC(C(F)(F)F)=C5)=C3)C=C6C(C=CC=C6)=C2C7=C(O1)C(C8=CC(C9=CC(C(F)(F)F)=CC(C(F)(F)F)=C9)=CC(C%10=CC(C(F)(F)F)=CC(C(F)(F)F)=C%10)=C8)=CC%11=C7C=CC=C%11
 OpenBabel09032010373D

122132  0  0  0  0  0  0  0  0999 V2000
    0.2541   -1.4404    0.0787 O   0  0  0  0  0  0  0  0  0  0  0  0
   -0.1007    0.0154   -0.0286 P   0  0  0  0  0  0  0  0  0  0  0  0
   -0.2883    0.6700    1.4305 O   0  0  0  0  0  0  0  0  0  0  0  0
    1.0033    0.9754   -0.6945 O   0  0  0  0  0  0  0  0  0  0  0  0
    1.0642    0.9968   -2.0677 C   0  0  0  0  0  0  0  0  0  0  0  0
    2.2119    0.4377   -2.6560 C   0  0  0  0  0  0  0  0  0  0  0  0
    3.2929   -0.1487   -1.8544 C   0  0  0  0  0  0  0  0  0  0  0  0
    4.4240    0.6094   -1.5210 C   0  0  0  0  0  0  0  0  0  0  0  0
    5.4698    0.0697   -0.7564 C   0  0  0  0  0  0  0  0  0  0  0  0
    6.6658    0.8671   -0.4435 C   0  0  0  0  0  0  0  0  0  0  0  0
    7.1104    1.0356    0.8779 C   0  0  0  0  0  0  0  0  0  0  0  0
    8.2580    1.7922    1.1778 C   0  0  0  0  0  0  0  0  0  0  0  0
    8.6921    1.9657    2.6152 C   0  0  0  0  0  0  0  0  0  0  0  0
    8.6597    0.7959    3.3124 F   0  0  0  0  0  0  0  0  0  0  0  0
    7.8915    2.8304    3.2952 F   0  0  0  0  0  0  0  0  0  0  0  0
    9.9602    2.4444    2.7439 F   0  0  0  0  0  0  0  0  0  0  0  0
    8.9676    2.3945    0.1278 C   0  0  0  0  0  0  0  0  0  0  0  0
    8.5550    2.2317   -1.2032 C   0  0  0  0  0  0  0  0  0  0  0  0
    9.3085    2.8835   -2.3366 C   0  0  0  0  0  0  0  0  0  0  0  0
    8.8190    4.1180   -2.6360 F   0  0  0  0  0  0  0  0  0  0  0  0
   10.6313    3.0606   -2.0662 F   0  0  0  0  0  0  0  0  0  0  0  0
    9.2562    2.1679   -3.4940 F   0  0  0  0  0  0  0  0  0  0  0  0
    7.4026    1.4761   -1.4712 C   0  0  0  0  0  0  0  0  0  0  0  0
    5.3527   -1.2602   -0.3186 C   0  0  0  0  0  0  0  0  0  0  0  0
    4.2367   -2.0548   -0.6365 C   0  0  0  0  0  0  0  0  0  0  0  0
    4.1444   -3.4531   -0.1778 C   0  0  0  0  0  0  0  0  0  0  0  0
    5.2232   -4.3392   -0.3385 C   0  0  0  0  0  0  0  0  0  0  0  0
    5.1556   -5.6727    0.0980 C   0  0  0  0  0  0  0  0  0  0  0  0
    6.3240   -6.6086   -0.1040 C   0  0  0  0  0  0  0  0  0  0  0  0
    7.4900   -5.9632   -0.3851 F   0  0  0  0  0  0  0  0  0  0  0  0
    6.1167   -7.4777   -1.1305 F   0  0  0  0  0  0  0  0  0  0  0  0
    6.5760   -7.3754    0.9926 F   0  0  0  0  0  0  0  0  0  0  0  0
    3.9722   -6.1319    0.6970 C   0  0  0  0  0  0  0  0  0  0  0  0
    2.8774   -5.2728    0.8767 C   0  0  0  0  0  0  0  0  0  0  0  0
    1.5945   -5.7685    1.5033 C   0  0  0  0  0  0  0  0  0  0  0  0
    1.7954   -6.7896    2.3829 F   0  0  0  0  0  0  0  0  0  0  0  0
    0.7165   -6.2390    0.5775 F   0  0  0  0  0  0  0  0  0  0  0  0
    0.9329   -4.8037    2.2006 F   0  0  0  0  0  0  0  0  0  0  0  0
    2.9766   -3.9438    0.4299 C   0  0  0  0  0  0  0  0  0  0  0  0
    3.2178   -1.4771   -1.4109 C   0  0  0  0  0  0  0  0  0  0  0  0
    2.3126    0.4574   -4.0461 C   0  0  0  0  0  0  0  0  0  0  0  0
    1.2892    0.9813   -4.8395 C   0  0  0  0  0  0  0  0  0  0  0  0
    0.1343    1.5482   -4.2345 C   0  0  0  0  0  0  0  0  0  0  0  0
   -0.8902    1.9651   -5.1233 C   0  0  0  0  0  0  0  0  0  0  0  0
   -0.7619    1.8926   -6.5134 C   0  0  0  0  0  0  0  0  0  0  0  0
    0.3965    1.3793   -7.0717 C   0  0  0  0  0  0  0  0  0  0  0  0
    1.4121    0.9205   -6.2385 C   0  0  0  0  0  0  0  0  0  0  0  0
    0.0253    1.6265   -2.7957 C   0  0  0  0  0  0  0  0  0  0  0  0
   -1.0624    2.3058   -2.1064 C   0  0  0  0  0  0  0  0  0  0  0  0
   -1.8574    1.6321   -1.1332 C   0  0  0  0  0  0  0  0  0  0  0  0
   -1.4897    0.3444   -0.7742 O   0  0  0  0  0  0  0  0  0  0  0  0
   -3.0847    2.1486   -0.6078 C   0  0  0  0  0  0  0  0  0  0  0  0
   -3.9788    1.3868    0.3205 C   0  0  0  0  0  0  0  0  0  0  0  0
   -4.7528    1.9734    1.3465 C   0  0  0  0  0  0  0  0  0  0  0  0
   -5.4759    1.1974    2.2862 C   0  0  0  0  0  0  0  0  0  0  0  0
   -6.3935    1.7858    3.2894 C   0  0  0  0  0  0  0  0  0  0  0  0
   -7.5988    1.1202    3.5939 C   0  0  0  0  0  0  0  0  0  0  0  0
   -8.4901    1.5832    4.5706 C   0  0  0  0  0  0  0  0  0  0  0  0
   -9.7520    0.8089    4.8668 C   0  0  0  0  0  0  0  0  0  0  0  0
  -10.1249    0.8865    6.1741 F   0  0  0  0  0  0  0  0  0  0  0  0
   -9.6433   -0.5202    4.5874 F   0  0  0  0  0  0  0  0  0  0  0  0
  -10.8140    1.2605    4.1458 F   0  0  0  0  0  0  0  0  0  0  0  0
   -8.1952    2.7808    5.2316 C   0  0  0  0  0  0  0  0  0  0  0  0
   -7.0153    3.4885    4.9461 C   0  0  0  0  0  0  0  0  0  0  0  0
   -6.7311    4.7950    5.6549 C   0  0  0  0  0  0  0  0  0  0  0  0
   -7.3271    5.8532    5.0398 F   0  0  0  0  0  0  0  0  0  0  0  0
   -7.1769    4.8112    6.9424 F   0  0  0  0  0  0  0  0  0  0  0  0
   -5.4035    5.0924    5.7139 F   0  0  0  0  0  0  0  0  0  0  0  0
   -6.1255    2.9813    3.9752 C   0  0  0  0  0  0  0  0  0  0  0  0
   -5.2903   -0.1986    2.2648 C   0  0  0  0  0  0  0  0  0  0  0  0
   -4.5488   -0.8051    1.2612 C   0  0  0  0  0  0  0  0  0  0  0  0
   -4.0694   -2.1862    1.3311 C   0  0  0  0  0  0  0  0  0  0  0  0
   -2.6831   -2.3598    1.1971 C   0  0  0  0  0  0  0  0  0  0  0  0
   -2.0743   -3.5980    1.0516 C   0  0  0  0  0  0  0  0  0  0  0  0
   -0.5934   -3.5974    0.7071 C   0  0  0  0  0  0  0  0  0  0  0  0
   -0.0785   -4.8638    0.6922 F   0  0  0  0  0  0  0  0  0  0  0  0
   -0.3280   -3.0802   -0.5208 F   0  0  0  0  0  0  0  0  0  0  0  0
    0.1639   -2.9031    1.5988 F   0  0  0  0  0  0  0  0  0  0  0  0
   -2.8899   -4.7322    1.1894 C   0  0  0  0  0  0  0  0  0  0  0  0
   -4.2819   -4.6036    1.4432 C   0  0  0  0  0  0  0  0  0  0  0  0
   -5.1813   -5.8150    1.6225 C   0  0  0  0  0  0  0  0  0  0  0  0
   -4.5010   -6.9392    1.9805 F   0  0  0  0  0  0  0  0  0  0  0  0
   -6.1319   -5.6293    2.5809 F   0  0  0  0  0  0  0  0  0  0  0  0
   -5.8532   -6.1280    0.4814 F   0  0  0  0  0  0  0  0  0  0  0  0
   -4.8635   -3.3182    1.4802 C   0  0  0  0  0  0  0  0  0  0  0  0
   -4.0464   -0.0018    0.2280 C   0  0  0  0  0  0  0  0  0  0  0  0
   -3.4448    3.4367   -1.0164 C   0  0  0  0  0  0  0  0  0  0  0  0
   -2.6372    4.2045   -1.8633 C   0  0  0  0  0  0  0  0  0  0  0  0
   -1.4390    3.6637   -2.3972 C   0  0  0  0  0  0  0  0  0  0  0  0
   -0.6475    4.5442   -3.1814 C   0  0  0  0  0  0  0  0  0  0  0  0
   -1.0412    5.8525   -3.4740 C   0  0  0  0  0  0  0  0  0  0  0  0
   -2.2398    6.3368   -2.9778 C   0  0  0  0  0  0  0  0  0  0  0  0
   -3.0287    5.5187   -2.1738 C   0  0  0  0  0  0  0  0  0  0  0  0
    0.3017    0.2354    2.0728 H   0  0  0  0  0  0  0  0  0  0  0  0
    4.4829    1.6441   -1.8580 H   0  0  0  0  0  0  0  0  0  0  0  0
    6.5515    0.5787    1.6959 H   0  0  0  0  0  0  0  0  0  0  0  0
    9.8543    2.9925    0.3471 H   0  0  0  0  0  0  0  0  0  0  0  0
    7.0841    1.3512   -2.5075 H   0  0  0  0  0  0  0  0  0  0  0  0
    6.1561   -1.6897    0.2791 H   0  0  0  0  0  0  0  0  0  0  0  0
    6.1344   -3.9905   -0.8267 H   0  0  0  0  0  0  0  0  0  0  0  0
    3.9042   -7.1701    1.0279 H   0  0  0  0  0  0  0  0  0  0  0  0
    2.1206   -3.2800    0.5683 H   0  0  0  0  0  0  0  0  0  0  0  0
    2.3449   -2.0729   -1.6800 H   0  0  0  0  0  0  0  0  0  0  0  0
    3.1973    0.0312   -4.5182 H   0  0  0  0  0  0  0  0  0  0  0  0
   -1.8328    2.3491   -4.7376 H   0  0  0  0  0  0  0  0  0  0  0  0
   -1.5751    2.2311   -7.1505 H   0  0  0  0  0  0  0  0  0  0  0  0
    0.5052    1.3176   -8.1509 H   0  0  0  0  0  0  0  0  0  0  0  0
    2.3036    0.4958   -6.6972 H   0  0  0  0  0  0  0  0  0  0  0  0
   -4.7975    3.0573    1.4238 H   0  0  0  0  0  0  0  0  0  0  0  0
   -7.8564    0.2055    3.0565 H   0  0  0  0  0  0  0  0  0  0  0  0
   -8.8886    3.1673    5.9807 H   0  0  0  0  0  0  0  0  0  0  0  0
   -5.2046    3.5291    3.7726 H   0  0  0  0  0  0  0  0  0  0  0  0
   -5.6916   -0.8150    3.0672 H   0  0  0  0  0  0  0  0  0  0  0  0
   -2.0529   -1.4760    1.1643 H   0  0  0  0  0  0  0  0  0  0  0  0
   -2.4473   -5.7252    1.1012 H   0  0  0  0  0  0  0  0  0  0  0  0
   -5.9405   -3.2153    1.6043 H   0  0  0  0  0  0  0  0  0  0  0  0
   -3.5793   -0.5057   -0.6175 H   0  0  0  0  0  0  0  0  0  0  0  0
   -4.3808    3.8673   -0.6635 H   0  0  0  0  0  0  0  0  0  0  0  0
    0.3147    4.2204   -3.5755 H   0  0  0  0  0  0  0  0  0  0  0  0
   -0.4035    6.4859   -4.0855 H   0  0  0  0  0  0  0  0  0  0  0  0
   -2.5554    7.3524   -3.2005 H   0  0  0  0  0  0  0  0  0  0  0  0
   -3.9569    5.9266   -1.7769 H   0  0  0  0  0  0  0  0  0  0  0  0
  2  1  2  0  0  0  0
  2  3  1  0  0  0  0
  3 94  1  0  0  0  0
  4  2  1  0  0  0  0
  5  4  1  0  0  0  0
  6  5  1  0  0  0  0
  6  7  1  0  0  0  0
  7  8  2  0  0  0  0
  7 40  1  0  0  0  0
  8  9  1  0  0  0  0
  9 10  1  0  0  0  0
  9 24  2  0  0  0  0
 10 11  2  0  0  0  0
 11 12  1  0  0  0  0
 11 96  1  0  0  0  0
 12 13  1  0  0  0  0
 13 16  1  0  0  0  0
 13 15  1  0  0  0  0
 13 14  1  0  0  0  0
 17 97  1  0  0  0  0
 17 12  2  0  0  0  0
 18 17  1  0  0  0  0
 19 21  1  0  0  0  0
 19 18  1  0  0  0  0
 20 19  1  0  0  0  0
 22 19  1  0  0  0  0
 23 18  2  0  0  0  0
 23 10  1  0  0  0  0
 24 99  1  0  0  0  0
 25 24  1  0  0  0  0
 25 26  1  0  0  0  0
 26 39  1  0  0  0  0
 27 26  2  0  0  0  0
 27 28  1  0  0  0  0
 28 33  2  0  0  0  0
 29 28  1  0  0  0  0
 29 32  1  0  0  0  0
 30 29  1  0  0  0  0
 31 29  1  0  0  0  0
 33 34  1  0  0  0  0
 33101  1  0  0  0  0
 34 35  1  0  0  0  0
 35 38  1  0  0  0  0
 35 36  1  0  0  0  0
 37 35  1  0  0  0  0
 39102  1  0  0  0  0
 39 34  2  0  0  0  0
 40 25  2  0  0  0  0
 41  6  2  0  0  0  0
 42 43  1  0  0  0  0
 42 41  1  0  0  0  0
 43 48  1  0  0  0  0
 44105  1  0  0  0  0
 44 43  2  0  0  0  0
 45 44  1  0  0  0  0
 46 45  2  0  0  0  0
 46 47  1  0  0  0  0
 47 42  2  0  0  0  0
 48 49  1  0  0  0  0
 48  5  2  0  0  0  0
 49 50  1  0  0  0  0
 50 51  1  0  0  0  0
 50 52  2  0  0  0  0
 51  2  1  0  0  0  0
 52 53  1  0  0  0  0
 53 54  1  0  0  0  0
 54109  1  0  0  0  0
 54 55  2  0  0  0  0
 55 56  1  0  0  0  0
 56 57  2  0  0  0  0
 56 69  1  0  0  0  0
 57 58  1  0  0  0  0
 58 59  1  0  0  0  0
 58 63  2  0  0  0  0
 59 60  1  0  0  0  0
 61 59  1  0  0  0  0
 62 59  1  0  0  0  0
 63111  1  0  0  0  0
 64 63  1  0  0  0  0
 64 65  1  0  0  0  0
 65 68  1  0  0  0  0
 65 67  1  0  0  0  0
 66 65  1  0  0  0  0
 69 64  2  0  0  0  0
 70 55  1  0  0  0  0
 70113  1  0  0  0  0
 71 72  1  0  0  0  0
 71 70  2  0  0  0  0
 72 85  1  0  0  0  0
 73 72  2  0  0  0  0
 74 79  2  0  0  0  0
 74 73  1  0  0  0  0
 75 74  1  0  0  0  0
 75 78  1  0  0  0  0
 76 75  1  0  0  0  0
 77 75  1  0  0  0  0
 79 80  1  0  0  0  0
 80 85  2  0  0  0  0
 80 81  1  0  0  0  0
 81 82  1  0  0  0  0
 81 83  1  0  0  0  0
 84 81  1  0  0  0  0
 85116  1  0  0  0  0
 86 53  2  0  0  0  0
 86 71  1  0  0  0  0
 87118  1  0  0  0  0
 87 52  1  0  0  0  0
 88 87  2  0  0  0  0
 89 49  2  0  0  0  0
 89 88  1  0  0  0  0
 90 89  1  0  0  0  0
 91 90  2  0  0  0  0
 91 92  1  0  0  0  0
 92 93  2  0  0  0  0
 93 88  1  0  0  0  0
 93122  1  0  0  0  0
 95  8  1  0  0  0  0
 98 23  1  0  0  0  0
100 27  1  0  0  0  0
103 40  1  0  0  0  0
104 41  1  0  0  0  0
106 45  1  0  0  0  0
107 46  1  0  0  0  0
108 47  1  0  0  0  0
110 57  1  0  0  0  0
112 69  1  0  0  0  0
114 73  1  0  0  0  0
115 79  1  0  0  0  0
117 86  1  0  0  0  0
119 90  1  0  0  0  0
120 91  1  0  0  0  0
121 92  1  0  0  0  0
M  END
$$$$
