O=P1(O)OC2=C(CC3=CC=C(OC)C=C3)C=C4C(CCCC4)=C2C5=C(O1)C(CC6=CC=C(OC)C=C6)=CC7=C5CCCC7
 OpenBabel09032010373D

 80 86  0  0  0  0  0  0  0  0999 V2000
   -0.2778    4.1810    0.1330 O   0  0  0  0  0  0  0  0  0  0  0  0
    0.1099    2.9052    0.8153 P   0  0  0  0  0  0  0  0  0  0  0  0
    0.6420    3.2195    2.3022 O   0  0  0  0  0  0  0  0  0  0  0  0
    1.3217    2.0966    0.1283 O   0  0  0  0  0  0  0  0  0  0  0  0
    1.5810    0.8106    0.5418 C   0  0  0  0  0  0  0  0  0  0  0  0
    2.8270    0.5796    1.1462 C   0  0  0  0  0  0  0  0  0  0  0  0
    3.8545    1.6758    1.3259 C   0  0  0  0  0  0  0  0  0  0  0  0
    4.9804    1.6260    0.3178 C   0  0  0  0  0  0  0  0  0  0  0  0
    6.2479    1.1517    0.6816 C   0  0  0  0  0  0  0  0  0  0  0  0
    7.2898    1.1030   -0.2523 C   0  0  0  0  0  0  0  0  0  0  0  0
    7.0774    1.5268   -1.5638 C   0  0  0  0  0  0  0  0  0  0  0  0
    8.0050    1.5324   -2.5690 O   0  0  0  0  0  0  0  0  0  0  0  0
    9.3081    1.0662   -2.2437 C   0  0  0  0  0  0  0  0  0  0  0  0
    5.8150    1.9966   -1.9309 C   0  0  0  0  0  0  0  0  0  0  0  0
    4.7731    2.0460   -1.0015 C   0  0  0  0  0  0  0  0  0  0  0  0
    3.1211   -0.7130    1.5815 C   0  0  0  0  0  0  0  0  0  0  0  0
    2.1818   -1.7443    1.4712 C   0  0  0  0  0  0  0  0  0  0  0  0
    0.9360   -1.5014    0.8407 C   0  0  0  0  0  0  0  0  0  0  0  0
   -0.1407   -2.5793    0.9264 C   0  0  0  0  0  0  0  0  0  0  0  0
    0.4048   -3.9899    1.1335 C   0  0  0  0  0  0  0  0  0  0  0  0
    1.3799   -4.0079    2.2972 C   0  0  0  0  0  0  0  0  0  0  0  0
    2.5705   -3.1090    1.9925 C   0  0  0  0  0  0  0  0  0  0  0  0
    0.6279   -0.2107    0.2985 C   0  0  0  0  0  0  0  0  0  0  0  0
   -0.5790    0.0694   -0.4392 C   0  0  0  0  0  0  0  0  0  0  0  0
   -1.4650    1.0810    0.0032 C   0  0  0  0  0  0  0  0  0  0  0  0
   -1.0949    1.8644    1.0704 O   0  0  0  0  0  0  0  0  0  0  0  0
   -2.7242    1.3166   -0.5682 C   0  0  0  0  0  0  0  0  0  0  0  0
   -3.6873    2.3456   -0.0163 C   0  0  0  0  0  0  0  0  0  0  0  0
   -4.8783    1.7414    0.6960 C   0  0  0  0  0  0  0  0  0  0  0  0
   -6.1627    1.8229    0.1410 C   0  0  0  0  0  0  0  0  0  0  0  0
   -7.2643    1.2577    0.7958 C   0  0  0  0  0  0  0  0  0  0  0  0
   -7.0963    0.6028    2.0153 C   0  0  0  0  0  0  0  0  0  0  0  0
   -8.0829    0.0089    2.7540 O   0  0  0  0  0  0  0  0  0  0  0  0
   -9.3980    0.0349    2.2129 C   0  0  0  0  0  0  0  0  0  0  0  0
   -5.8186    0.5222    2.5731 C   0  0  0  0  0  0  0  0  0  0  0  0
   -4.7174    1.0852    1.9225 C   0  0  0  0  0  0  0  0  0  0  0  0
   -3.0943    0.5575   -1.6795 C   0  0  0  0  0  0  0  0  0  0  0  0
   -2.2185   -0.3797   -2.2401 C   0  0  0  0  0  0  0  0  0  0  0  0
   -0.9630   -0.6263   -1.6314 C   0  0  0  0  0  0  0  0  0  0  0  0
    0.0450   -1.4990   -2.3719 C   0  0  0  0  0  0  0  0  0  0  0  0
   -0.5865   -2.4773   -3.3590 C   0  0  0  0  0  0  0  0  0  0  0  0
   -1.5522   -1.7458   -4.2748 C   0  0  0  0  0  0  0  0  0  0  0  0
   -2.6870   -1.1407   -3.4594 C   0  0  0  0  0  0  0  0  0  0  0  0
    0.3002    4.0850    2.5918 H   0  0  0  0  0  0  0  0  0  0  0  0
    3.3906    2.6692    1.2887 H   0  0  0  0  0  0  0  0  0  0  0  0
    4.2614    1.6083    2.3443 H   0  0  0  0  0  0  0  0  0  0  0  0
    6.4358    0.8153    1.6987 H   0  0  0  0  0  0  0  0  0  0  0  0
    8.2522    0.7283    0.0783 H   0  0  0  0  0  0  0  0  0  0  0  0
    9.2862    0.0152   -1.9371 H   0  0  0  0  0  0  0  0  0  0  0  0
    9.9233    1.1367   -3.1460 H   0  0  0  0  0  0  0  0  0  0  0  0
    9.7716    1.6935   -1.4751 H   0  0  0  0  0  0  0  0  0  0  0  0
    5.6389    2.3264   -2.9518 H   0  0  0  0  0  0  0  0  0  0  0  0
    3.7981    2.4123   -1.3160 H   0  0  0  0  0  0  0  0  0  0  0  0
    4.0881   -0.9163    2.0388 H   0  0  0  0  0  0  0  0  0  0  0  0
   -0.7917   -2.3200    1.7719 H   0  0  0  0  0  0  0  0  0  0  0  0
   -0.7745   -2.6080    0.0390 H   0  0  0  0  0  0  0  0  0  0  0  0
    0.9057   -4.3366    0.2208 H   0  0  0  0  0  0  0  0  0  0  0  0
   -0.4245   -4.6791    1.3287 H   0  0  0  0  0  0  0  0  0  0  0  0
    1.7267   -5.0298    2.4865 H   0  0  0  0  0  0  0  0  0  0  0  0
    0.8744   -3.6650    3.2088 H   0  0  0  0  0  0  0  0  0  0  0  0
    3.1691   -3.0052    2.9057 H   0  0  0  0  0  0  0  0  0  0  0  0
    3.2057   -3.5887    1.2370 H   0  0  0  0  0  0  0  0  0  0  0  0
   -3.1870    3.0379    0.6716 H   0  0  0  0  0  0  0  0  0  0  0  0
   -4.0256    2.9796   -0.8471 H   0  0  0  0  0  0  0  0  0  0  0  0
   -6.3181    2.3275   -0.8102 H   0  0  0  0  0  0  0  0  0  0  0  0
   -8.2371    1.3479    0.3250 H   0  0  0  0  0  0  0  0  0  0  0  0
   -9.7641    1.0623    2.1167 H   0  0  0  0  0  0  0  0  0  0  0  0
  -10.0573   -0.4895    2.9114 H   0  0  0  0  0  0  0  0  0  0  0  0
   -9.4411   -0.4923    1.2541 H   0  0  0  0  0  0  0  0  0  0  0  0
   -5.6770    0.0125    3.5229 H   0  0  0  0  0  0  0  0  0  0  0  0
   -3.7324    1.0020    2.3769 H   0  0  0  0  0  0  0  0  0  0  0  0
   -4.0720    0.7147   -2.1330 H   0  0  0  0  0  0  0  0  0  0  0  0
    0.7179   -0.8245   -2.9179 H   0  0  0  0  0  0  0  0  0  0  0  0
    0.6683   -2.0832   -1.6931 H   0  0  0  0  0  0  0  0  0  0  0  0
    0.1993   -2.9597   -3.9512 H   0  0  0  0  0  0  0  0  0  0  0  0
   -1.1152   -3.2705   -2.8156 H   0  0  0  0  0  0  0  0  0  0  0  0
   -1.9606   -2.4337   -5.0235 H   0  0  0  0  0  0  0  0  0  0  0  0
   -1.0191   -0.9563   -4.8194 H   0  0  0  0  0  0  0  0  0  0  0  0
   -3.2696   -0.4798   -4.1127 H   0  0  0  0  0  0  0  0  0  0  0  0
   -3.3577   -1.9400   -3.1193 H   0  0  0  0  0  0  0  0  0  0  0  0
  1  2  2  0  0  0  0
  2 26  1  0  0  0  0
  2  3  1  0  0  0  0
  3 44  1  0  0  0  0
  4  5  1  0  0  0  0
  4  2  1  0  0  0  0
  5  6  1  0  0  0  0
  6  7  1  0  0  0  0
  6 16  2  0  0  0  0
  7 46  1  0  0  0  0
  8  9  1  0  0  0  0
  8  7  1  0  0  0  0
  9 47  1  0  0  0  0
 10 48  1  0  0  0  0
 10  9  2  0  0  0  0
 11 10  1  0  0  0  0
 12 13  1  0  0  0  0
 12 11  1  0  0  0  0
 13 49  1  0  0  0  0
 13 51  1  0  0  0  0
 14 11  2  0  0  0  0
 14 15  1  0  0  0  0
 15  8  2  0  0  0  0
 16 54  1  0  0  0  0
 17 16  1  0  0  0  0
 17 22  1  0  0  0  0
 18 19  1  0  0  0  0
 18 17  2  0  0  0  0
 19 20  1  0  0  0  0
 19 55  1  0  0  0  0
 20 58  1  0  0  0  0
 20 21  1  0  0  0  0
 21 59  1  0  0  0  0
 21 60  1  0  0  0  0
 22 21  1  0  0  0  0
 22 61  1  0  0  0  0
 23  5  2  0  0  0  0
 23 18  1  0  0  0  0
 24 25  1  0  0  0  0
 24 23  1  0  0  0  0
 25 26  1  0  0  0  0
 27 28  1  0  0  0  0
 27 25  2  0  0  0  0
 28 63  1  0  0  0  0
 28 29  1  0  0  0  0
 29 36  1  0  0  0  0
 30 29  2  0  0  0  0
 30 31  1  0  0  0  0
 31 32  2  0  0  0  0
 32 35  1  0  0  0  0
 32 33  1  0  0  0  0
 34 33  1  0  0  0  0
 34 68  1  0  0  0  0
 35 70  1  0  0  0  0
 36 71  1  0  0  0  0
 36 35  2  0  0  0  0
 37 27  1  0  0  0  0
 38 37  2  0  0  0  0
 38 39  1  0  0  0  0
 39 24  2  0  0  0  0
 40 74  1  0  0  0  0
 40 39  1  0  0  0  0
 41 76  1  0  0  0  0
 41 40  1  0  0  0  0
 42 43  1  0  0  0  0
 42 41  1  0  0  0  0
 43 80  1  0  0  0  0
 43 38  1  0  0  0  0
 45  7  1  0  0  0  0
 50 13  1  0  0  0  0
 52 14  1  0  0  0  0
 53 15  1  0  0  0  0
 56 19  1  0  0  0  0
 57 20  1  0  0  0  0
 62 22  1  0  0  0  0
 64 28  1  0  0  0  0
 65 30  1  0  0  0  0
 66 31  1  0  0  0  0
 67 34  1  0  0  0  0
 69 34  1  0  0  0  0
 72 37  1  0  0  0  0
 73 40  1  0  0  0  0
 75 41  1  0  0  0  0
 77 42  1  0  0  0  0
 78 42  1  0  0  0  0
 79 43  1  0  0  0  0
M  END
$$$$
