O=P1(O)OC2=C(C3=C(OCC)C=CC(C)=C3)C=C4C(C=CC=C4)=C2C5=C(O1)C(C6=CC(C)=CC=C6OCC)=CC7=C5C=CC=C7
 OpenBabel09032010383D

 78 84  0  0  0  0  0  0  0  0999 V2000
   -1.0473   -1.1079   -2.9287 O   0  0  0  0  0  0  0  0  0  0  0  0
   -0.3545   -0.2928   -1.8825 P   0  0  0  0  0  0  0  0  0  0  0  0
    0.4359    0.9667   -2.4908 O   0  0  0  0  0  0  0  0  0  0  0  0
    0.7770   -1.0868   -1.0480 O   0  0  0  0  0  0  0  0  0  0  0  0
    1.4322   -0.4526   -0.0205 C   0  0  0  0  0  0  0  0  0  0  0  0
    2.8224   -0.2889   -0.1635 C   0  0  0  0  0  0  0  0  0  0  0  0
    3.5837   -0.8886   -1.2754 C   0  0  0  0  0  0  0  0  0  0  0  0
    3.7144   -0.2878   -2.5367 C   0  0  0  0  0  0  0  0  0  0  0  0
    3.0685    0.8895   -2.8160 O   0  0  0  0  0  0  0  0  0  0  0  0
    3.9754    1.9949   -2.6998 C   0  0  0  0  0  0  0  0  0  0  0  0
    3.1548    3.2710   -2.6814 C   0  0  0  0  0  0  0  0  0  0  0  0
    4.4290   -0.9062   -3.5657 C   0  0  0  0  0  0  0  0  0  0  0  0
    5.0638   -2.1258   -3.3375 C   0  0  0  0  0  0  0  0  0  0  0  0
    4.9844   -2.7365   -2.0828 C   0  0  0  0  0  0  0  0  0  0  0  0
    5.6304   -4.0689   -1.8413 C   0  0  0  0  0  0  0  0  0  0  0  0
    4.2334   -2.1208   -1.0695 C   0  0  0  0  0  0  0  0  0  0  0  0
    3.5068    0.3957    0.8432 C   0  0  0  0  0  0  0  0  0  0  0  0
    2.8379    0.9144    1.9550 C   0  0  0  0  0  0  0  0  0  0  0  0
    1.4447    0.6904    2.1155 C   0  0  0  0  0  0  0  0  0  0  0  0
    0.8336    1.3027    3.2387 C   0  0  0  0  0  0  0  0  0  0  0  0
    1.5584    2.0424    4.1767 C   0  0  0  0  0  0  0  0  0  0  0  0
    2.9247    2.2092    4.0164 C   0  0  0  0  0  0  0  0  0  0  0  0
    3.5587    1.6522    2.9093 C   0  0  0  0  0  0  0  0  0  0  0  0
    0.7168   -0.0858    1.1446 C   0  0  0  0  0  0  0  0  0  0  0  0
   -0.6478   -0.5393    1.3341 C   0  0  0  0  0  0  0  0  0  0  0  0
   -1.6371   -0.2712    0.3566 C   0  0  0  0  0  0  0  0  0  0  0  0
   -1.2849    0.4186   -0.7780 O   0  0  0  0  0  0  0  0  0  0  0  0
   -3.0028   -0.5551    0.5301 C   0  0  0  0  0  0  0  0  0  0  0  0
   -4.0228   -0.1670   -0.4584 C   0  0  0  0  0  0  0  0  0  0  0  0
   -4.1661   -0.8902   -1.6543 C   0  0  0  0  0  0  0  0  0  0  0  0
   -5.1358   -0.5421   -2.6078 C   0  0  0  0  0  0  0  0  0  0  0  0
   -5.2755   -1.3468   -3.8664 C   0  0  0  0  0  0  0  0  0  0  0  0
   -6.0028    0.5239   -2.3444 C   0  0  0  0  0  0  0  0  0  0  0  0
   -5.8801    1.2542   -1.1635 C   0  0  0  0  0  0  0  0  0  0  0  0
   -4.8860    0.9213   -0.2422 C   0  0  0  0  0  0  0  0  0  0  0  0
   -4.8061    1.6473    0.9211 O   0  0  0  0  0  0  0  0  0  0  0  0
   -3.9995    2.8143    0.7183 C   0  0  0  0  0  0  0  0  0  0  0  0
   -3.5369    3.3041    2.0780 C   0  0  0  0  0  0  0  0  0  0  0  0
   -3.3950   -1.1950    1.7068 C   0  0  0  0  0  0  0  0  0  0  0  0
   -2.4651   -1.5686    2.6788 C   0  0  0  0  0  0  0  0  0  0  0  0
   -1.0886   -1.2674    2.5006 C   0  0  0  0  0  0  0  0  0  0  0  0
   -0.2092   -1.7654    3.4967 C   0  0  0  0  0  0  0  0  0  0  0  0
   -0.6607   -2.4548    4.6260 C   0  0  0  0  0  0  0  0  0  0  0  0
   -2.0153   -2.6895    4.7945 C   0  0  0  0  0  0  0  0  0  0  0  0
   -2.9105   -2.2540    3.8223 C   0  0  0  0  0  0  0  0  0  0  0  0
    1.2060    0.6924   -3.0279 H   0  0  0  0  0  0  0  0  0  0  0  0
    4.5652    1.9309   -1.7771 H   0  0  0  0  0  0  0  0  0  0  0  0
    4.6536    2.0071   -3.5608 H   0  0  0  0  0  0  0  0  0  0  0  0
    2.5475    3.3525   -3.5889 H   0  0  0  0  0  0  0  0  0  0  0  0
    2.4623    3.2701   -1.8330 H   0  0  0  0  0  0  0  0  0  0  0  0
    3.8015    4.1497   -2.6082 H   0  0  0  0  0  0  0  0  0  0  0  0
    4.4837   -0.4449   -4.5477 H   0  0  0  0  0  0  0  0  0  0  0  0
    5.6131   -2.6008   -4.1473 H   0  0  0  0  0  0  0  0  0  0  0  0
    5.9517   -4.1630   -0.7987 H   0  0  0  0  0  0  0  0  0  0  0  0
    6.5207   -4.1909   -2.4672 H   0  0  0  0  0  0  0  0  0  0  0  0
    4.9249   -4.8736   -2.0694 H   0  0  0  0  0  0  0  0  0  0  0  0
    4.1425   -2.6131   -0.1014 H   0  0  0  0  0  0  0  0  0  0  0  0
    4.5830    0.5344    0.7457 H   0  0  0  0  0  0  0  0  0  0  0  0
   -0.2412    1.2208    3.3938 H   0  0  0  0  0  0  0  0  0  0  0  0
    1.0469    2.4878    5.0258 H   0  0  0  0  0  0  0  0  0  0  0  0
    3.4955    2.7820    4.7420 H   0  0  0  0  0  0  0  0  0  0  0  0
    4.6293    1.8097    2.7918 H   0  0  0  0  0  0  0  0  0  0  0  0
   -3.5069   -1.7353   -1.8507 H   0  0  0  0  0  0  0  0  0  0  0  0
   -5.9366   -2.2013   -3.6925 H   0  0  0  0  0  0  0  0  0  0  0  0
   -4.3006   -1.7140   -4.2039 H   0  0  0  0  0  0  0  0  0  0  0  0
   -5.6908   -0.7379   -4.6763 H   0  0  0  0  0  0  0  0  0  0  0  0
   -6.7788    0.7907   -3.0577 H   0  0  0  0  0  0  0  0  0  0  0  0
   -6.5574    2.0776   -0.9587 H   0  0  0  0  0  0  0  0  0  0  0  0
   -4.6026    3.5896    0.2319 H   0  0  0  0  0  0  0  0  0  0  0  0
   -3.1217    2.6023    0.0952 H   0  0  0  0  0  0  0  0  0  0  0  0
   -2.9287    4.2077    1.9808 H   0  0  0  0  0  0  0  0  0  0  0  0
   -2.9454    2.5331    2.5832 H   0  0  0  0  0  0  0  0  0  0  0  0
   -4.3947    3.5221    2.7226 H   0  0  0  0  0  0  0  0  0  0  0  0
   -4.4529   -1.4110    1.8543 H   0  0  0  0  0  0  0  0  0  0  0  0
    0.8666   -1.6327    3.3995 H   0  0  0  0  0  0  0  0  0  0  0  0
    0.0530   -2.8089    5.3649 H   0  0  0  0  0  0  0  0  0  0  0  0
   -2.3759   -3.2235    5.6691 H   0  0  0  0  0  0  0  0  0  0  0  0
   -3.9695   -2.4666    3.9588 H   0  0  0  0  0  0  0  0  0  0  0  0
  1  2  2  0  0  0  0
  2  4  1  0  0  0  0
  2 27  1  0  0  0  0
  3  2  1  0  0  0  0
  4  5  1  0  0  0  0
  5 24  1  0  0  0  0
  6  5  2  0  0  0  0
  6 17  1  0  0  0  0
  7 16  1  0  0  0  0
  7  6  1  0  0  0  0
  8  7  2  0  0  0  0
  9 10  1  0  0  0  0
  9  8  1  0  0  0  0
 10 11  1  0  0  0  0
 10 47  1  0  0  0  0
 11 51  1  0  0  0  0
 11 50  1  0  0  0  0
 12 13  2  0  0  0  0
 12  8  1  0  0  0  0
 13 14  1  0  0  0  0
 14 15  1  0  0  0  0
 14 16  2  0  0  0  0
 15 54  1  0  0  0  0
 16 57  1  0  0  0  0
 17 18  2  0  0  0  0
 18 19  1  0  0  0  0
 18 23  1  0  0  0  0
 19 20  1  0  0  0  0
 20 59  1  0  0  0  0
 20 21  2  0  0  0  0
 21 60  1  0  0  0  0
 22 21  1  0  0  0  0
 22 61  1  0  0  0  0
 23 22  2  0  0  0  0
 24 25  1  0  0  0  0
 24 19  2  0  0  0  0
 25 41  2  0  0  0  0
 26 28  2  0  0  0  0
 26 25  1  0  0  0  0
 27 26  1  0  0  0  0
 28 39  1  0  0  0  0
 29 35  1  0  0  0  0
 29 28  1  0  0  0  0
 30 29  2  0  0  0  0
 31 33  2  0  0  0  0
 31 30  1  0  0  0  0
 32 64  1  0  0  0  0
 32 31  1  0  0  0  0
 33 34  1  0  0  0  0
 34 68  1  0  0  0  0
 34 35  2  0  0  0  0
 35 36  1  0  0  0  0
 37 36  1  0  0  0  0
 37 38  1  0  0  0  0
 38 72  1  0  0  0  0
 38 73  1  0  0  0  0
 39 74  1  0  0  0  0
 39 40  2  0  0  0  0
 40 45  1  0  0  0  0
 41 40  1  0  0  0  0
 41 42  1  0  0  0  0
 42 43  2  0  0  0  0
 43 44  1  0  0  0  0
 43 76  1  0  0  0  0
 44 77  1  0  0  0  0
 45 78  1  0  0  0  0
 45 44  2  0  0  0  0
 46  3  1  0  0  0  0
 48 10  1  0  0  0  0
 49 11  1  0  0  0  0
 52 12  1  0  0  0  0
 53 13  1  0  0  0  0
 55 15  1  0  0  0  0
 56 15  1  0  0  0  0
 58 17  1  0  0  0  0
 62 23  1  0  0  0  0
 63 30  1  0  0  0  0
 65 32  1  0  0  0  0
 66 32  1  0  0  0  0
 67 33  1  0  0  0  0
 69 37  1  0  0  0  0
 70 37  1  0  0  0  0
 71 38  1  0  0  0  0
 75 42  1  0  0  0  0
M  END
$$$$
