O=P1(O)OC2=C(C3=CC=C(OC)C=C3)C=C4C(C=CC=C4)=C2C5=C(O1)C(C6=CC=C(OC)C=C6)=CC7=C5C=CC=C7
 OpenBabel09032010383D

 66 72  0  0  0  0  0  0  0  0999 V2000
   -0.8594    2.0621   -1.7328 O   0  0  0  0  0  0  0  0  0  0  0  0
   -0.1848    1.4161   -0.5630 P   0  0  0  0  0  0  0  0  0  0  0  0
    0.5423    2.5054    0.3718 O   0  0  0  0  0  0  0  0  0  0  0  0
    1.0044    0.4013   -0.9477 O   0  0  0  0  0  0  0  0  0  0  0  0
    1.5565   -0.3846    0.0400 C   0  0  0  0  0  0  0  0  0  0  0  0
    2.8907   -0.1076    0.3904 C   0  0  0  0  0  0  0  0  0  0  0  0
    3.6470    1.0071   -0.2044 C   0  0  0  0  0  0  0  0  0  0  0  0
    4.0707    2.0861    0.5877 C   0  0  0  0  0  0  0  0  0  0  0  0
    4.7802    3.1590    0.0337 C   0  0  0  0  0  0  0  0  0  0  0  0
    5.0799    3.1713   -1.3271 C   0  0  0  0  0  0  0  0  0  0  0  0
    5.7588    4.1527   -1.9938 O   0  0  0  0  0  0  0  0  0  0  0  0
    6.2285    5.2504   -1.2212 C   0  0  0  0  0  0  0  0  0  0  0  0
    4.6638    2.1034   -2.1237 C   0  0  0  0  0  0  0  0  0  0  0  0
    3.9565    1.0315   -1.5706 C   0  0  0  0  0  0  0  0  0  0  0  0
    3.4911   -0.9187    1.3545 C   0  0  0  0  0  0  0  0  0  0  0  0
    2.7862   -1.9469    1.9865 C   0  0  0  0  0  0  0  0  0  0  0  0
    1.4331   -2.2063    1.6379 C   0  0  0  0  0  0  0  0  0  0  0  0
    0.7696   -3.1947    2.4102 C   0  0  0  0  0  0  0  0  0  0  0  0
    1.4145   -3.9303    3.4082 C   0  0  0  0  0  0  0  0  0  0  0  0
    2.7496   -3.6901    3.6877 C   0  0  0  0  0  0  0  0  0  0  0  0
    3.4277   -2.6986    2.9857 C   0  0  0  0  0  0  0  0  0  0  0  0
    0.7934   -1.4445    0.5918 C   0  0  0  0  0  0  0  0  0  0  0  0
   -0.5492   -1.7061    0.1098 C   0  0  0  0  0  0  0  0  0  0  0  0
   -1.5120   -0.6646    0.0926 C   0  0  0  0  0  0  0  0  0  0  0  0
   -1.1314    0.6082    0.4598 O   0  0  0  0  0  0  0  0  0  0  0  0
   -2.8697   -0.8614   -0.2106 C   0  0  0  0  0  0  0  0  0  0  0  0
   -3.8568    0.2231   -0.1448 C   0  0  0  0  0  0  0  0  0  0  0  0
   -4.0214    1.1156   -1.2128 C   0  0  0  0  0  0  0  0  0  0  0  0
   -4.9667    2.1472   -1.1525 C   0  0  0  0  0  0  0  0  0  0  0  0
   -5.7678    2.2988   -0.0218 C   0  0  0  0  0  0  0  0  0  0  0  0
   -6.7247    3.2580    0.1650 O   0  0  0  0  0  0  0  0  0  0  0  0
   -6.8885    4.2108   -0.8780 C   0  0  0  0  0  0  0  0  0  0  0  0
   -5.6138    1.4106    1.0441 C   0  0  0  0  0  0  0  0  0  0  0  0
   -4.6681    0.3829    0.9860 C   0  0  0  0  0  0  0  0  0  0  0  0
   -3.2814   -2.1449   -0.5717 C   0  0  0  0  0  0  0  0  0  0  0  0
   -2.3727   -3.2026   -0.6641 C   0  0  0  0  0  0  0  0  0  0  0  0
   -1.0029   -2.9969   -0.3474 C   0  0  0  0  0  0  0  0  0  0  0  0
   -0.1388   -4.1020   -0.5579 C   0  0  0  0  0  0  0  0  0  0  0  0
   -0.6028   -5.3480   -0.9882 C   0  0  0  0  0  0  0  0  0  0  0  0
   -1.9522   -5.5309   -1.2430 C   0  0  0  0  0  0  0  0  0  0  0  0
   -2.8296   -4.4619   -1.0882 C   0  0  0  0  0  0  0  0  0  0  0  0
    0.9774    3.1801   -0.1806 H   0  0  0  0  0  0  0  0  0  0  0  0
    3.8370    2.1034    1.6513 H   0  0  0  0  0  0  0  0  0  0  0  0
    5.0796    3.9653    0.6946 H   0  0  0  0  0  0  0  0  0  0  0  0
    5.3954    5.8027   -0.7740 H   0  0  0  0  0  0  0  0  0  0  0  0
    6.7563    5.9321   -1.8950 H   0  0  0  0  0  0  0  0  0  0  0  0
    6.9399    4.9200   -0.4570 H   0  0  0  0  0  0  0  0  0  0  0  0
    4.8922    2.1029   -3.1870 H   0  0  0  0  0  0  0  0  0  0  0  0
    3.6462    0.2133   -2.2178 H   0  0  0  0  0  0  0  0  0  0  0  0
    4.5275   -0.7264    1.6308 H   0  0  0  0  0  0  0  0  0  0  0  0
   -0.2874   -3.4021    2.2524 H   0  0  0  0  0  0  0  0  0  0  0  0
    0.8648   -4.6838    3.9660 H   0  0  0  0  0  0  0  0  0  0  0  0
    3.2584   -4.2571    4.4624 H   0  0  0  0  0  0  0  0  0  0  0  0
    4.4688   -2.5055    3.2388 H   0  0  0  0  0  0  0  0  0  0  0  0
   -3.4028    1.0201   -2.1039 H   0  0  0  0  0  0  0  0  0  0  0  0
   -5.0438    2.8123   -2.0058 H   0  0  0  0  0  0  0  0  0  0  0  0
   -7.6707    4.9115   -0.5705 H   0  0  0  0  0  0  0  0  0  0  0  0
   -7.2189    3.7289   -1.8040 H   0  0  0  0  0  0  0  0  0  0  0  0
   -5.9701    4.7859   -1.0363 H   0  0  0  0  0  0  0  0  0  0  0  0
   -6.2312    1.5212    1.9317 H   0  0  0  0  0  0  0  0  0  0  0  0
   -4.5638   -0.2900    1.8342 H   0  0  0  0  0  0  0  0  0  0  0  0
   -4.3319   -2.3095   -0.8108 H   0  0  0  0  0  0  0  0  0  0  0  0
    0.9336   -4.0026   -0.3982 H   0  0  0  0  0  0  0  0  0  0  0  0
    0.0969   -6.1680   -1.1269 H   0  0  0  0  0  0  0  0  0  0  0  0
   -2.3209   -6.4965   -1.5781 H   0  0  0  0  0  0  0  0  0  0  0  0
   -3.8824   -4.6182   -1.3170 H   0  0  0  0  0  0  0  0  0  0  0  0
  1  2  2  0  0  0  0
  2  3  1  0  0  0  0
  2 25  1  0  0  0  0
  4  2  1  0  0  0  0
  4  5  1  0  0  0  0
  5  6  2  0  0  0  0
  5 22  1  0  0  0  0
  6 15  1  0  0  0  0
  7  6  1  0  0  0  0
  7  8  2  0  0  0  0
  8 43  1  0  0  0  0
  9  8  1  0  0  0  0
  9 44  1  0  0  0  0
 10  9  2  0  0  0  0
 11 10  1  0  0  0  0
 11 12  1  0  0  0  0
 12 45  1  0  0  0  0
 12 47  1  0  0  0  0
 13 14  2  0  0  0  0
 13 10  1  0  0  0  0
 14  7  1  0  0  0  0
 15 50  1  0  0  0  0
 15 16  2  0  0  0  0
 16 21  1  0  0  0  0
 17 16  1  0  0  0  0
 17 18  1  0  0  0  0
 18 19  2  0  0  0  0
 19 20  1  0  0  0  0
 19 52  1  0  0  0  0
 20 53  1  0  0  0  0
 21 54  1  0  0  0  0
 21 20  2  0  0  0  0
 22 17  2  0  0  0  0
 23 22  1  0  0  0  0
 24 23  1  0  0  0  0
 24 25  1  0  0  0  0
 26 27  1  0  0  0  0
 26 24  2  0  0  0  0
 27 34  2  0  0  0  0
 28 29  2  0  0  0  0
 28 27  1  0  0  0  0
 29 30  1  0  0  0  0
 30 31  1  0  0  0  0
 30 33  2  0  0  0  0
 32 57  1  0  0  0  0
 32 31  1  0  0  0  0
 33 60  1  0  0  0  0
 34 33  1  0  0  0  0
 34 61  1  0  0  0  0
 35 26  1  0  0  0  0
 36 35  2  0  0  0  0
 36 37  1  0  0  0  0
 37 23  2  0  0  0  0
 38 63  1  0  0  0  0
 38 37  1  0  0  0  0
 39 38  2  0  0  0  0
 40 41  2  0  0  0  0
 40 39  1  0  0  0  0
 41 36  1  0  0  0  0
 42  3  1  0  0  0  0
 46 12  1  0  0  0  0
 48 13  1  0  0  0  0
 49 14  1  0  0  0  0
 51 18  1  0  0  0  0
 55 28  1  0  0  0  0
 56 29  1  0  0  0  0
 58 32  1  0  0  0  0
 59 32  1  0  0  0  0
 62 35  1  0  0  0  0
 64 39  1  0  0  0  0
 65 40  1  0  0  0  0
 66 41  1  0  0  0  0
M  END
$$$$
