O=P1(O)OC2=C(C3=CC(COC)=CC=C3)C=C4C(CCCC4)=C2C5=C(O1)C(C6=CC=CC(COC)=C6)=CC7=C5CCCC7
 OpenBabel09032010383D

 80 86  0  0  0  0  0  0  0  0999 V2000
    1.0404    2.7753   -0.0076 O   0  0  0  0  0  0  0  0  0  0  0  0
    0.2135    1.7425   -0.7083 P   0  0  0  0  0  0  0  0  0  0  0  0
   -0.7245    2.4155   -1.8313 O   0  0  0  0  0  0  0  0  0  0  0  0
   -0.8425    0.9661    0.2337 O   0  0  0  0  0  0  0  0  0  0  0  0
   -1.5135   -0.1208   -0.2831 C   0  0  0  0  0  0  0  0  0  0  0  0
   -2.9006    0.0113   -0.4753 C   0  0  0  0  0  0  0  0  0  0  0  0
   -3.6265    1.2484   -0.1427 C   0  0  0  0  0  0  0  0  0  0  0  0
   -3.7105    1.7043    1.1840 C   0  0  0  0  0  0  0  0  0  0  0  0
   -4.4001    2.8831    1.5128 C   0  0  0  0  0  0  0  0  0  0  0  0
   -4.4320    3.3650    2.9424 C   0  0  0  0  0  0  0  0  0  0  0  0
   -5.7025    3.9448    3.2402 O   0  0  0  0  0  0  0  0  0  0  0  0
   -5.7528    4.4255    4.5759 C   0  0  0  0  0  0  0  0  0  0  0  0
   -4.9944    3.6244    0.4838 C   0  0  0  0  0  0  0  0  0  0  0  0
   -4.9222    3.1877   -0.8380 C   0  0  0  0  0  0  0  0  0  0  0  0
   -4.2450    2.0078   -1.1477 C   0  0  0  0  0  0  0  0  0  0  0  0
   -3.5846   -1.0746   -1.0275 C   0  0  0  0  0  0  0  0  0  0  0  0
   -2.9112   -2.2392   -1.4239 C   0  0  0  0  0  0  0  0  0  0  0  0
   -1.5119   -2.3413   -1.2365 C   0  0  0  0  0  0  0  0  0  0  0  0
   -0.7704   -3.5273   -1.8394 C   0  0  0  0  0  0  0  0  0  0  0  0
   -1.5611   -4.2683   -2.9168 C   0  0  0  0  0  0  0  0  0  0  0  0
   -2.9513   -4.5931   -2.3964 C   0  0  0  0  0  0  0  0  0  0  0  0
   -3.7191   -3.3042   -2.1308 C   0  0  0  0  0  0  0  0  0  0  0  0
   -0.7881   -1.2998   -0.5738 C   0  0  0  0  0  0  0  0  0  0  0  0
    0.6094   -1.3840   -0.2492 C   0  0  0  0  0  0  0  0  0  0  0  0
    1.5196   -0.4499   -0.8003 C   0  0  0  0  0  0  0  0  0  0  0  0
    1.0155    0.6068   -1.5276 O   0  0  0  0  0  0  0  0  0  0  0  0
    2.9149   -0.5391   -0.6540 C   0  0  0  0  0  0  0  0  0  0  0  0
    3.8440    0.4116   -1.2900 C   0  0  0  0  0  0  0  0  0  0  0  0
    3.8811    0.5653   -2.6843 C   0  0  0  0  0  0  0  0  0  0  0  0
    4.7728    1.4552   -3.2858 C   0  0  0  0  0  0  0  0  0  0  0  0
    5.6429    2.2103   -2.5012 C   0  0  0  0  0  0  0  0  0  0  0  0
    5.6231    2.0910   -1.1062 C   0  0  0  0  0  0  0  0  0  0  0  0
    6.5891    2.8912   -0.2645 C   0  0  0  0  0  0  0  0  0  0  0  0
    6.0409    3.2950    0.9915 O   0  0  0  0  0  0  0  0  0  0  0  0
    5.1552    4.4022    0.8695 C   0  0  0  0  0  0  0  0  0  0  0  0
    4.7301    1.1806   -0.5161 C   0  0  0  0  0  0  0  0  0  0  0  0
    3.4129   -1.5765    0.1406 C   0  0  0  0  0  0  0  0  0  0  0  0
    2.5597   -2.4703    0.8048 C   0  0  0  0  0  0  0  0  0  0  0  0
    1.1595   -2.3566    0.6430 C   0  0  0  0  0  0  0  0  0  0  0  0
    0.2417   -3.2128    1.5052 C   0  0  0  0  0  0  0  0  0  0  0  0
    0.9297   -3.8150    2.7295 C   0  0  0  0  0  0  0  0  0  0  0  0
    2.2188   -4.4991    2.3059 C   0  0  0  0  0  0  0  0  0  0  0  0
    3.1930   -3.4696    1.7465 C   0  0  0  0  0  0  0  0  0  0  0  0
   -1.1106    3.2421   -1.4894 H   0  0  0  0  0  0  0  0  0  0  0  0
   -3.2298    1.1264    1.9725 H   0  0  0  0  0  0  0  0  0  0  0  0
   -4.2597    2.5256    3.6264 H   0  0  0  0  0  0  0  0  0  0  0  0
   -3.6394    4.1097    3.0817 H   0  0  0  0  0  0  0  0  0  0  0  0
   -5.6014    3.6060    5.2851 H   0  0  0  0  0  0  0  0  0  0  0  0
   -6.7418    4.8582    4.7492 H   0  0  0  0  0  0  0  0  0  0  0  0
   -4.9993    5.2036    4.7323 H   0  0  0  0  0  0  0  0  0  0  0  0
   -5.5270    4.5452    0.7151 H   0  0  0  0  0  0  0  0  0  0  0  0
   -5.3957    3.7663   -1.6269 H   0  0  0  0  0  0  0  0  0  0  0  0
   -4.1914    1.6856   -2.1860 H   0  0  0  0  0  0  0  0  0  0  0  0
   -4.6600   -0.9998   -1.1885 H   0  0  0  0  0  0  0  0  0  0  0  0
   -0.5289   -4.2461   -1.0549 H   0  0  0  0  0  0  0  0  0  0  0  0
    0.1704   -3.1901   -2.2900 H   0  0  0  0  0  0  0  0  0  0  0  0
   -1.0349   -5.1899   -3.1899 H   0  0  0  0  0  0  0  0  0  0  0  0
   -1.6330   -3.6556   -3.8242 H   0  0  0  0  0  0  0  0  0  0  0  0
   -3.4978   -5.2067   -3.1212 H   0  0  0  0  0  0  0  0  0  0  0  0
   -2.8732   -5.1804   -1.4727 H   0  0  0  0  0  0  0  0  0  0  0  0
   -4.6141   -3.5397   -1.5424 H   0  0  0  0  0  0  0  0  0  0  0  0
   -4.0545   -2.8893   -3.0903 H   0  0  0  0  0  0  0  0  0  0  0  0
    3.2106   -0.0165   -3.3138 H   0  0  0  0  0  0  0  0  0  0  0  0
    4.7876    1.5570   -4.3677 H   0  0  0  0  0  0  0  0  0  0  0  0
    6.3344    2.8951   -2.9867 H   0  0  0  0  0  0  0  0  0  0  0  0
    6.9583    3.7717   -0.8044 H   0  0  0  0  0  0  0  0  0  0  0  0
    7.4550    2.2548   -0.0500 H   0  0  0  0  0  0  0  0  0  0  0  0
    5.6812    5.2696    0.4592 H   0  0  0  0  0  0  0  0  0  0  0  0
    4.2938    4.1529    0.2431 H   0  0  0  0  0  0  0  0  0  0  0  0
    4.7916    4.6589    1.8682 H   0  0  0  0  0  0  0  0  0  0  0  0
    4.7146    1.0867    0.5696 H   0  0  0  0  0  0  0  0  0  0  0  0
    4.4903   -1.6709    0.2766 H   0  0  0  0  0  0  0  0  0  0  0  0
   -0.6044   -2.6125    1.8597 H   0  0  0  0  0  0  0  0  0  0  0  0
   -0.1571   -4.0370    0.9118 H   0  0  0  0  0  0  0  0  0  0  0  0
    0.2592   -4.5363    3.2100 H   0  0  0  0  0  0  0  0  0  0  0  0
    1.1449   -3.0320    3.4676 H   0  0  0  0  0  0  0  0  0  0  0  0
    2.6755   -5.0162    3.1572 H   0  0  0  0  0  0  0  0  0  0  0  0
    2.0014   -5.2610    1.5466 H   0  0  0  0  0  0  0  0  0  0  0  0
    4.0080   -3.9947    1.2340 H   0  0  0  0  0  0  0  0  0  0  0  0
    3.6341   -2.9104    2.5819 H   0  0  0  0  0  0  0  0  0  0  0  0
  2  1  2  0  0  0  0
  2  4  1  0  0  0  0
  3 44  1  0  0  0  0
  3  2  1  0  0  0  0
  5  4  1  0  0  0  0
  6  5  1  0  0  0  0
  6  7  1  0  0  0  0
  7  8  2  0  0  0  0
  8  9  1  0  0  0  0
  8 45  1  0  0  0  0
  9 10  1  0  0  0  0
 10 47  1  0  0  0  0
 10 11  1  0  0  0  0
 10 46  1  0  0  0  0
 11 12  1  0  0  0  0
 12 50  1  0  0  0  0
 12 49  1  0  0  0  0
 12 48  1  0  0  0  0
 13 51  1  0  0  0  0
 13  9  2  0  0  0  0
 14 13  1  0  0  0  0
 15 14  2  0  0  0  0
 15  7  1  0  0  0  0
 16  6  2  0  0  0  0
 17 18  2  0  0  0  0
 17 16  1  0  0  0  0
 18 23  1  0  0  0  0
 19 18  1  0  0  0  0
 19 55  1  0  0  0  0
 20 21  1  0  0  0  0
 20 19  1  0  0  0  0
 21 22  1  0  0  0  0
 21 60  1  0  0  0  0
 22 61  1  0  0  0  0
 22 17  1  0  0  0  0
 23  5  2  0  0  0  0
 23 24  1  0  0  0  0
 24 39  2  0  0  0  0
 25 27  2  0  0  0  0
 25 24  1  0  0  0  0
 26 25  1  0  0  0  0
 26  2  1  0  0  0  0
 27 37  1  0  0  0  0
 28 27  1  0  0  0  0
 28 36  2  0  0  0  0
 29 28  1  0  0  0  0
 30 29  2  0  0  0  0
 30 31  1  0  0  0  0
 31 32  2  0  0  0  0
 32 36  1  0  0  0  0
 32 33  1  0  0  0  0
 33 67  1  0  0  0  0
 33 34  1  0  0  0  0
 35 34  1  0  0  0  0
 35 70  1  0  0  0  0
 36 71  1  0  0  0  0
 37 72  1  0  0  0  0
 37 38  2  0  0  0  0
 38 43  1  0  0  0  0
 39 38  1  0  0  0  0
 39 40  1  0  0  0  0
 40 73  1  0  0  0  0
 40 41  1  0  0  0  0
 41 75  1  0  0  0  0
 41 76  1  0  0  0  0
 42 41  1  0  0  0  0
 42 77  1  0  0  0  0
 43 42  1  0  0  0  0
 43 80  1  0  0  0  0
 52 14  1  0  0  0  0
 53 15  1  0  0  0  0
 54 16  1  0  0  0  0
 56 19  1  0  0  0  0
 57 20  1  0  0  0  0
 58 20  1  0  0  0  0
 59 21  1  0  0  0  0
 62 22  1  0  0  0  0
 63 29  1  0  0  0  0
 64 30  1  0  0  0  0
 65 31  1  0  0  0  0
 66 33  1  0  0  0  0
 68 35  1  0  0  0  0
 69 35  1  0  0  0  0
 74 40  1  0  0  0  0
 78 42  1  0  0  0  0
 79 43  1  0  0  0  0
M  END
$$$$
