O=P1(O)OC2=C(C3=CC(COC)=CC=C3)C=C4C(C=CC=C4)=C2C5=C(O1)C(C6=CC=CC(COC)=C6)=CC7=C5C=CC=C7
 OpenBabel09032010383D

 72 78  0  0  0  0  0  0  0  0999 V2000
    0.5381    2.2777    0.1392 O   0  0  0  0  0  0  0  0  0  0  0  0
   -0.0434    1.0851   -0.5506 P   0  0  0  0  0  0  0  0  0  0  0  0
   -0.9347    1.5002   -1.8245 O   0  0  0  0  0  0  0  0  0  0  0  0
    0.9966    0.0060   -1.1449 O   0  0  0  0  0  0  0  0  0  0  0  0
    1.5499   -0.8839   -0.2470 C   0  0  0  0  0  0  0  0  0  0  0  0
    2.9103   -0.7134    0.0592 C   0  0  0  0  0  0  0  0  0  0  0  0
    3.7121    0.3724   -0.5176 C   0  0  0  0  0  0  0  0  0  0  0  0
    3.9819    1.5298    0.2296 C   0  0  0  0  0  0  0  0  0  0  0  0
    4.7146    2.5971   -0.3128 C   0  0  0  0  0  0  0  0  0  0  0  0
    4.9968    3.8420    0.4963 C   0  0  0  0  0  0  0  0  0  0  0  0
    3.9714    4.1406    1.4458 O   0  0  0  0  0  0  0  0  0  0  0  0
    2.8405    4.7713    0.8523 C   0  0  0  0  0  0  0  0  0  0  0  0
    5.2203    2.4737   -1.6133 C   0  0  0  0  0  0  0  0  0  0  0  0
    4.9696    1.3251   -2.3648 C   0  0  0  0  0  0  0  0  0  0  0  0
    4.2154    0.2840   -1.8222 C   0  0  0  0  0  0  0  0  0  0  0  0
    3.4953   -1.6035    0.9596 C   0  0  0  0  0  0  0  0  0  0  0  0
    2.7490   -2.6133    1.5731 C   0  0  0  0  0  0  0  0  0  0  0  0
    1.3716   -2.7764    1.2615 C   0  0  0  0  0  0  0  0  0  0  0  0
    0.6732   -3.7581    2.0102 C   0  0  0  0  0  0  0  0  0  0  0  0
    1.3030   -4.5718    2.9556 C   0  0  0  0  0  0  0  0  0  0  0  0
    2.6578   -4.4209    3.2017 C   0  0  0  0  0  0  0  0  0  0  0  0
    3.3741   -3.4433    2.5184 C   0  0  0  0  0  0  0  0  0  0  0  0
    0.7447   -1.9289    0.2767 C   0  0  0  0  0  0  0  0  0  0  0  0
   -0.6223   -2.0912   -0.1829 C   0  0  0  0  0  0  0  0  0  0  0  0
   -1.5175   -0.9920   -0.1460 C   0  0  0  0  0  0  0  0  0  0  0  0
   -1.0633    0.2153    0.3406 O   0  0  0  0  0  0  0  0  0  0  0  0
   -2.8764   -1.0566   -0.5151 C   0  0  0  0  0  0  0  0  0  0  0  0
   -3.7543    0.1333   -0.5196 C   0  0  0  0  0  0  0  0  0  0  0  0
   -4.4648    0.4939   -1.6774 C   0  0  0  0  0  0  0  0  0  0  0  0
   -5.2319    1.6600   -1.7215 C   0  0  0  0  0  0  0  0  0  0  0  0
   -5.2936    2.4969   -0.6099 C   0  0  0  0  0  0  0  0  0  0  0  0
   -4.6100    2.1612    0.5630 C   0  0  0  0  0  0  0  0  0  0  0  0
   -4.6029    3.0902    1.7462 C   0  0  0  0  0  0  0  0  0  0  0  0
   -3.4266    3.8911    1.6556 O   0  0  0  0  0  0  0  0  0  0  0  0
   -3.2956    4.7574    2.7734 C   0  0  0  0  0  0  0  0  0  0  0  0
   -3.8597    0.9749    0.6001 C   0  0  0  0  0  0  0  0  0  0  0  0
   -3.3666   -2.2953   -0.9327 C   0  0  0  0  0  0  0  0  0  0  0  0
   -2.5368   -3.4163   -1.0410 C   0  0  0  0  0  0  0  0  0  0  0  0
   -1.1602   -3.3245   -0.7016 C   0  0  0  0  0  0  0  0  0  0  0  0
   -0.3750   -4.4776   -0.9579 C   0  0  0  0  0  0  0  0  0  0  0  0
   -0.9220   -5.6683   -1.4433 C   0  0  0  0  0  0  0  0  0  0  0  0
   -2.2786   -5.7436   -1.7122 C   0  0  0  0  0  0  0  0  0  0  0  0
   -3.0784   -4.6214   -1.5197 C   0  0  0  0  0  0  0  0  0  0  0  0
   -1.5673    2.1987   -1.5704 H   0  0  0  0  0  0  0  0  0  0  0  0
    3.5841    1.6186    1.2410 H   0  0  0  0  0  0  0  0  0  0  0  0
    5.9203    3.6733    1.0614 H   0  0  0  0  0  0  0  0  0  0  0  0
    5.1612    4.7108   -0.1527 H   0  0  0  0  0  0  0  0  0  0  0  0
    2.4414    4.1824    0.0228 H   0  0  0  0  0  0  0  0  0  0  0  0
    3.1143    5.7699    0.4982 H   0  0  0  0  0  0  0  0  0  0  0  0
    2.0652    4.8742    1.6161 H   0  0  0  0  0  0  0  0  0  0  0  0
    5.8069    3.2768   -2.0535 H   0  0  0  0  0  0  0  0  0  0  0  0
    5.3558    1.2426   -3.3773 H   0  0  0  0  0  0  0  0  0  0  0  0
    4.0126   -0.5992   -2.4240 H   0  0  0  0  0  0  0  0  0  0  0  0
    4.5496   -1.4802    1.2066 H   0  0  0  0  0  0  0  0  0  0  0  0
   -0.3982   -3.8974    1.8763 H   0  0  0  0  0  0  0  0  0  0  0  0
    0.7259   -5.3144    3.4998 H   0  0  0  0  0  0  0  0  0  0  0  0
    3.1548   -5.0478    3.9364 H   0  0  0  0  0  0  0  0  0  0  0  0
    4.4319   -3.3219    2.7454 H   0  0  0  0  0  0  0  0  0  0  0  0
   -4.3980   -0.1206   -2.5737 H   0  0  0  0  0  0  0  0  0  0  0  0
   -5.7609    1.9262   -2.6331 H   0  0  0  0  0  0  0  0  0  0  0  0
   -5.8645    3.4208   -0.6678 H   0  0  0  0  0  0  0  0  0  0  0  0
   -4.6018    2.5124    2.6785 H   0  0  0  0  0  0  0  0  0  0  0  0
   -5.4936    3.7296    1.7408 H   0  0  0  0  0  0  0  0  0  0  0  0
   -3.2091    4.1790    3.6983 H   0  0  0  0  0  0  0  0  0  0  0  0
   -4.1503    5.4382    2.8330 H   0  0  0  0  0  0  0  0  0  0  0  0
   -2.3855    5.3495    2.6458 H   0  0  0  0  0  0  0  0  0  0  0  0
   -3.3200    0.7248    1.5131 H   0  0  0  0  0  0  0  0  0  0  0  0
   -4.4181   -2.3798   -1.2056 H   0  0  0  0  0  0  0  0  0  0  0  0
    0.7005   -4.4604   -0.7912 H   0  0  0  0  0  0  0  0  0  0  0  0
   -0.2804   -6.5285   -1.6150 H   0  0  0  0  0  0  0  0  0  0  0  0
   -2.7120   -6.6650   -2.0908 H   0  0  0  0  0  0  0  0  0  0  0  0
   -4.1366   -4.6913   -1.7651 H   0  0  0  0  0  0  0  0  0  0  0  0
  2  1  2  0  0  0  0
  2 26  1  0  0  0  0
  3 44  1  0  0  0  0
  3  2  1  0  0  0  0
  4  2  1  0  0  0  0
  4  5  1  0  0  0  0
  5  6  2  0  0  0  0
  5 23  1  0  0  0  0
  6 16  1  0  0  0  0
  7  6  1  0  0  0  0
  7  8  2  0  0  0  0
  8 45  1  0  0  0  0
  9  8  1  0  0  0  0
  9 10  1  0  0  0  0
 10 46  1  0  0  0  0
 10 11  1  0  0  0  0
 12 11  1  0  0  0  0
 12 50  1  0  0  0  0
 13  9  2  0  0  0  0
 14 15  2  0  0  0  0
 14 13  1  0  0  0  0
 15  7  1  0  0  0  0
 16 54  1  0  0  0  0
 16 17  2  0  0  0  0
 17 22  1  0  0  0  0
 18 17  1  0  0  0  0
 18 19  1  0  0  0  0
 19 20  2  0  0  0  0
 20 21  1  0  0  0  0
 20 56  1  0  0  0  0
 21 57  1  0  0  0  0
 22 58  1  0  0  0  0
 22 21  2  0  0  0  0
 23 18  2  0  0  0  0
 24 25  1  0  0  0  0
 24 23  1  0  0  0  0
 25 26  1  0  0  0  0
 27 25  2  0  0  0  0
 28 27  1  0  0  0  0
 28 36  2  0  0  0  0
 29 28  1  0  0  0  0
 30 29  2  0  0  0  0
 30 31  1  0  0  0  0
 31 32  2  0  0  0  0
 32 36  1  0  0  0  0
 32 33  1  0  0  0  0
 33 62  1  0  0  0  0
 34 33  1  0  0  0  0
 34 35  1  0  0  0  0
 35 65  1  0  0  0  0
 35 64  1  0  0  0  0
 36 67  1  0  0  0  0
 37 27  1  0  0  0  0
 38 37  2  0  0  0  0
 38 39  1  0  0  0  0
 39 24  2  0  0  0  0
 40 69  1  0  0  0  0
 40 39  1  0  0  0  0
 41 40  2  0  0  0  0
 42 43  2  0  0  0  0
 42 41  1  0  0  0  0
 43 38  1  0  0  0  0
 47 10  1  0  0  0  0
 48 12  1  0  0  0  0
 49 12  1  0  0  0  0
 51 13  1  0  0  0  0
 52 14  1  0  0  0  0
 53 15  1  0  0  0  0
 55 19  1  0  0  0  0
 59 29  1  0  0  0  0
 60 30  1  0  0  0  0
 61 31  1  0  0  0  0
 63 33  1  0  0  0  0
 66 35  1  0  0  0  0
 68 37  1  0  0  0  0
 70 41  1  0  0  0  0
 71 42  1  0  0  0  0
 72 43  1  0  0  0  0
M  END
$$$$
