O=P1(O)OC2=C([Si](C3=CC=CC=C3)(C4=CC=CC=C4)C5=CC=CC=C5)C=C6C(CCCC6)=C2C7=C(O1)C([Si](C8=CC=CC=C8)(C9=CC=CC=C9)C%10=CC=CC=C%10)=CC%11=C7CCCC%11
 OpenBabel09032010383D

112122  0  0  0  0  0  0  0  0999 V2000
   -0.9092    1.9808   -1.9511 O   0  0  0  0  0  0  0  0  0  0  0  0
   -0.0230    1.5257   -0.8320 P   0  0  0  0  0  0  0  0  0  0  0  0
    1.0373    2.6524   -0.4037 O   0  0  0  0  0  0  0  0  0  0  0  0
   -0.7622    1.2080    0.5693 O   0  0  0  0  0  0  0  0  0  0  0  0
   -1.4573    0.0353    0.6784 C   0  0  0  0  0  0  0  0  0  0  0  0
   -2.8563    0.0717    0.8247 C   0  0  0  0  0  0  0  0  0  0  0  0
   -3.8816    1.6224    1.0643 Si  0  0  0  0  0  0  0  0  0  0  0  0
   -2.9912    3.1973    0.6170 C   0  0  0  0  0  0  0  0  0  0  0  0
   -3.2298    3.8821   -0.5885 C   0  0  0  0  0  0  0  0  0  0  0  0
   -2.5352    5.0538   -0.9096 C   0  0  0  0  0  0  0  0  0  0  0  0
   -1.5900    5.5730   -0.0315 C   0  0  0  0  0  0  0  0  0  0  0  0
   -1.3427    4.9261    1.1732 C   0  0  0  0  0  0  0  0  0  0  0  0
   -2.0363    3.7561    1.4946 C   0  0  0  0  0  0  0  0  0  0  0  0
   -4.3706    1.7664    2.8778 C   0  0  0  0  0  0  0  0  0  0  0  0
   -4.9081    2.9735    3.3758 C   0  0  0  0  0  0  0  0  0  0  0  0
   -5.2790    3.1060    4.7166 C   0  0  0  0  0  0  0  0  0  0  0  0
   -5.1208    2.0376    5.5923 C   0  0  0  0  0  0  0  0  0  0  0  0
   -4.5890    0.8384    5.1288 C   0  0  0  0  0  0  0  0  0  0  0  0
   -4.2158    0.7033    3.7874 C   0  0  0  0  0  0  0  0  0  0  0  0
   -5.4380    1.4307    0.0297 C   0  0  0  0  0  0  0  0  0  0  0  0
   -6.7251    1.6388    0.5618 C   0  0  0  0  0  0  0  0  0  0  0  0
   -7.8711    1.4762   -0.2239 C   0  0  0  0  0  0  0  0  0  0  0  0
   -7.7591    1.0997   -1.5583 C   0  0  0  0  0  0  0  0  0  0  0  0
   -6.4997    0.8840   -2.1091 C   0  0  0  0  0  0  0  0  0  0  0  0
   -5.3522    1.0452   -1.3255 C   0  0  0  0  0  0  0  0  0  0  0  0
   -3.5136   -1.1740    0.8207 C   0  0  0  0  0  0  0  0  0  0  0  0
   -2.8225   -2.3866    0.6757 C   0  0  0  0  0  0  0  0  0  0  0  0
   -1.4164   -2.3815    0.5759 C   0  0  0  0  0  0  0  0  0  0  0  0
   -0.6813   -3.6836    0.2889 C   0  0  0  0  0  0  0  0  0  0  0  0
   -1.5810   -4.7954   -0.2486 C   0  0  0  0  0  0  0  0  0  0  0  0
   -2.8133   -4.9306    0.6301 C   0  0  0  0  0  0  0  0  0  0  0  0
   -3.6409   -3.6527    0.5628 C   0  0  0  0  0  0  0  0  0  0  0  0
   -0.6939   -1.1562    0.6732 C   0  0  0  0  0  0  0  0  0  0  0  0
    0.7389   -1.1037    0.7687 C   0  0  0  0  0  0  0  0  0  0  0  0
    1.5210   -0.4976   -0.2475 C   0  0  0  0  0  0  0  0  0  0  0  0
    0.8885    0.2459   -1.2145 O   0  0  0  0  0  0  0  0  0  0  0  0
    2.9153   -0.6945   -0.3726 C   0  0  0  0  0  0  0  0  0  0  0  0
    3.8899   -0.1833   -1.8884 Si  0  0  0  0  0  0  0  0  0  0  0  0
    5.7063   -0.6152   -1.6829 C   0  0  0  0  0  0  0  0  0  0  0  0
    6.7176    0.3596   -1.6062 C   0  0  0  0  0  0  0  0  0  0  0  0
    8.0604   -0.0018   -1.4564 C   0  0  0  0  0  0  0  0  0  0  0  0
    8.4229   -1.3434   -1.3879 C   0  0  0  0  0  0  0  0  0  0  0  0
    7.4453   -2.3280   -1.4765 C   0  0  0  0  0  0  0  0  0  0  0  0
    6.1038   -1.9694   -1.6272 C   0  0  0  0  0  0  0  0  0  0  0  0
    3.3487   -1.1539   -3.4028 C   0  0  0  0  0  0  0  0  0  0  0  0
    2.2087   -1.9782   -3.4111 C   0  0  0  0  0  0  0  0  0  0  0  0
    1.8399   -2.6930   -4.5555 C   0  0  0  0  0  0  0  0  0  0  0  0
    2.6033   -2.6051   -5.7152 C   0  0  0  0  0  0  0  0  0  0  0  0
    3.7392   -1.8035   -5.7334 C   0  0  0  0  0  0  0  0  0  0  0  0
    4.1089   -1.0875   -4.5914 C   0  0  0  0  0  0  0  0  0  0  0  0
    3.6615    1.6405   -2.1704 C   0  0  0  0  0  0  0  0  0  0  0  0
    4.0047    2.5680   -1.1657 C   0  0  0  0  0  0  0  0  0  0  0  0
    3.7786    3.9361   -1.3357 C   0  0  0  0  0  0  0  0  0  0  0  0
    3.2059    4.4084   -2.5115 C   0  0  0  0  0  0  0  0  0  0  0  0
    2.8737    3.5182   -3.5262 C   0  0  0  0  0  0  0  0  0  0  0  0
    3.0950    2.1488   -3.3562 C   0  0  0  0  0  0  0  0  0  0  0  0
    3.5538   -1.3421    0.6975 C   0  0  0  0  0  0  0  0  0  0  0  0
    2.8487   -1.8050    1.8187 C   0  0  0  0  0  0  0  0  0  0  0  0
    1.4463   -1.6739    1.8663 C   0  0  0  0  0  0  0  0  0  0  0  0
    0.6997   -2.0758    3.1316 C   0  0  0  0  0  0  0  0  0  0  0  0
    1.5952   -2.2099    4.3621 C   0  0  0  0  0  0  0  0  0  0  0  0
    2.8037   -3.0680    4.0279 C   0  0  0  0  0  0  0  0  0  0  0  0
    3.6508   -2.3786    2.9652 C   0  0  0  0  0  0  0  0  0  0  0  0
    1.3111    3.1846   -1.1750 H   0  0  0  0  0  0  0  0  0  0  0  0
   -3.9502    3.5126   -1.3158 H   0  0  0  0  0  0  0  0  0  0  0  0
   -2.7314    5.5515   -1.8556 H   0  0  0  0  0  0  0  0  0  0  0  0
   -1.0463    6.4774   -0.2868 H   0  0  0  0  0  0  0  0  0  0  0  0
   -0.6043    5.3229    1.8647 H   0  0  0  0  0  0  0  0  0  0  0  0
   -1.7995    3.2690    2.4412 H   0  0  0  0  0  0  0  0  0  0  0  0
   -5.0456    3.8345    2.7206 H   0  0  0  0  0  0  0  0  0  0  0  0
   -5.6902    4.0464    5.0743 H   0  0  0  0  0  0  0  0  0  0  0  0
   -5.4092    2.1398    6.6349 H   0  0  0  0  0  0  0  0  0  0  0  0
   -4.4613    0.0028    5.8122 H   0  0  0  0  0  0  0  0  0  0  0  0
   -3.7985   -0.2523    3.4769 H   0  0  0  0  0  0  0  0  0  0  0  0
   -6.8664    1.9257    1.6022 H   0  0  0  0  0  0  0  0  0  0  0  0
   -8.8531    1.6434    0.2120 H   0  0  0  0  0  0  0  0  0  0  0  0
   -8.6526    0.9741   -2.1652 H   0  0  0  0  0  0  0  0  0  0  0  0
   -6.4066    0.5892   -3.1514 H   0  0  0  0  0  0  0  0  0  0  0  0
   -4.3824    0.8654   -1.7929 H   0  0  0  0  0  0  0  0  0  0  0  0
   -4.6022   -1.2176    0.9079 H   0  0  0  0  0  0  0  0  0  0  0  0
    0.1090   -3.5094   -0.4511 H   0  0  0  0  0  0  0  0  0  0  0  0
   -0.2076   -4.0470    1.2039 H   0  0  0  0  0  0  0  0  0  0  0  0
   -1.0254   -5.7397   -0.2696 H   0  0  0  0  0  0  0  0  0  0  0  0
   -1.8801   -4.5739   -1.2808 H   0  0  0  0  0  0  0  0  0  0  0  0
   -2.5095   -5.1269    1.6662 H   0  0  0  0  0  0  0  0  0  0  0  0
   -3.4217   -5.7825    0.3069 H   0  0  0  0  0  0  0  0  0  0  0  0
   -4.3945   -3.6784    1.3591 H   0  0  0  0  0  0  0  0  0  0  0  0
   -4.1741   -3.6236   -0.3962 H   0  0  0  0  0  0  0  0  0  0  0  0
    6.4881    1.4212   -1.6711 H   0  0  0  0  0  0  0  0  0  0  0  0
    8.8239    0.7699   -1.3983 H   0  0  0  0  0  0  0  0  0  0  0  0
    9.4668   -1.6207   -1.2733 H   0  0  0  0  0  0  0  0  0  0  0  0
    7.7234   -3.3777   -1.4333 H   0  0  0  0  0  0  0  0  0  0  0  0
    5.3653   -2.7689   -1.7021 H   0  0  0  0  0  0  0  0  0  0  0  0
    1.5806   -2.0865   -2.5299 H   0  0  0  0  0  0  0  0  0  0  0  0
    0.9519   -3.3200   -4.5359 H   0  0  0  0  0  0  0  0  0  0  0  0
    2.3136   -3.1620   -6.6018 H   0  0  0  0  0  0  0  0  0  0  0  0
    4.3426   -1.7348   -6.6349 H   0  0  0  0  0  0  0  0  0  0  0  0
    5.0095   -0.4747   -4.6435 H   0  0  0  0  0  0  0  0  0  0  0  0
    4.4176    2.2328   -0.2133 H   0  0  0  0  0  0  0  0  0  0  0  0
    4.0067    4.6249   -0.5281 H   0  0  0  0  0  0  0  0  0  0  0  0
    2.9934    5.4658   -2.6229 H   0  0  0  0  0  0  0  0  0  0  0  0
    2.4265    3.8835   -4.4484 H   0  0  0  0  0  0  0  0  0  0  0  0
    2.7913    1.4860   -4.1665 H   0  0  0  0  0  0  0  0  0  0  0  0
    4.6358   -1.4777    0.6976 H   0  0  0  0  0  0  0  0  0  0  0  0
   -0.0702   -1.3295    3.3618 H   0  0  0  0  0  0  0  0  0  0  0  0
    0.1986   -3.0338    2.9740 H   0  0  0  0  0  0  0  0  0  0  0  0
    1.0264   -2.6602    5.1833 H   0  0  0  0  0  0  0  0  0  0  0  0
    1.9224   -1.2190    4.7014 H   0  0  0  0  0  0  0  0  0  0  0  0
    3.4074   -3.2441    4.9251 H   0  0  0  0  0  0  0  0  0  0  0  0
    2.4721   -4.0493    3.6654 H   0  0  0  0  0  0  0  0  0  0  0  0
    4.3854   -3.0964    2.5806 H   0  0  0  0  0  0  0  0  0  0  0  0
    4.2066   -1.5548    3.4313 H   0  0  0  0  0  0  0  0  0  0  0  0
  1  2  2  0  0  0  0
  2  3  1  0  0  0  0
  2  4  1  0  0  0  0
  4  5  1  0  0  0  0
  5  6  2  0  0  0  0
  6  7  1  0  0  0  0
  7 14  1  0  0  0  0
  8  7  1  0  0  0  0
  8 13  2  0  0  0  0
  9  8  1  0  0  0  0
 10  9  2  0  0  0  0
 10 11  1  0  0  0  0
 11 12  2  0  0  0  0
 12 13  1  0  0  0  0
 12 68  1  0  0  0  0
 13 69  1  0  0  0  0
 14 15  2  0  0  0  0
 14 19  1  0  0  0  0
 15 16  1  0  0  0  0
 16 71  1  0  0  0  0
 16 17  2  0  0  0  0
 17 72  1  0  0  0  0
 18 17  1  0  0  0  0
 18 73  1  0  0  0  0
 19 18  2  0  0  0  0
 20 21  1  0  0  0  0
 20  7  1  0  0  0  0
 21 75  1  0  0  0  0
 22 76  1  0  0  0  0
 22 21  2  0  0  0  0
 23 22  1  0  0  0  0
 24 23  2  0  0  0  0
 24 25  1  0  0  0  0
 25 20  2  0  0  0  0
 26  6  1  0  0  0  0
 26 80  1  0  0  0  0
 27 26  2  0  0  0  0
 28 33  2  0  0  0  0
 28 27  1  0  0  0  0
 29 28  1  0  0  0  0
 29 82  1  0  0  0  0
 30 29  1  0  0  0  0
 30 31  1  0  0  0  0
 31 85  1  0  0  0  0
 32 31  1  0  0  0  0
 32 27  1  0  0  0  0
 32 87  1  0  0  0  0
 33  5  1  0  0  0  0
 33 34  1  0  0  0  0
 34 59  2  0  0  0  0
 35 34  1  0  0  0  0
 36  2  1  0  0  0  0
 36 35  1  0  0  0  0
 37 35  2  0  0  0  0
 37 57  1  0  0  0  0
 38 39  1  0  0  0  0
 38 37  1  0  0  0  0
 39 44  2  0  0  0  0
 39 40  1  0  0  0  0
 40 41  2  0  0  0  0
 41 90  1  0  0  0  0
 41 42  1  0  0  0  0
 42 91  1  0  0  0  0
 43 92  1  0  0  0  0
 43 42  2  0  0  0  0
 44 43  1  0  0  0  0
 45 38  1  0  0  0  0
 46 45  1  0  0  0  0
 46 94  1  0  0  0  0
 47 95  1  0  0  0  0
 47 46  2  0  0  0  0
 48 47  1  0  0  0  0
 49 48  2  0  0  0  0
 49 50  1  0  0  0  0
 50 45  2  0  0  0  0
 51 38  1  0  0  0  0
 51 52  2  0  0  0  0
 52 99  1  0  0  0  0
 53 52  1  0  0  0  0
 53100  1  0  0  0  0
 54 53  2  0  0  0  0
 55 56  2  0  0  0  0
 55 54  1  0  0  0  0
 56 51  1  0  0  0  0
 57104  1  0  0  0  0
 57 58  2  0  0  0  0
 58 59  1  0  0  0  0
 58 63  1  0  0  0  0
 59 60  1  0  0  0  0
 60105  1  0  0  0  0
 60 61  1  0  0  0  0
 61108  1  0  0  0  0
 61107  1  0  0  0  0
 62 61  1  0  0  0  0
 62109  1  0  0  0  0
 63112  1  0  0  0  0
 63 62  1  0  0  0  0
 64  3  1  0  0  0  0
 65  9  1  0  0  0  0
 66 10  1  0  0  0  0
 67 11  1  0  0  0  0
 70 15  1  0  0  0  0
 74 19  1  0  0  0  0
 77 23  1  0  0  0  0
 78 24  1  0  0  0  0
 79 25  1  0  0  0  0
 81 29  1  0  0  0  0
 83 30  1  0  0  0  0
 84 30  1  0  0  0  0
 86 31  1  0  0  0  0
 88 32  1  0  0  0  0
 89 40  1  0  0  0  0
 93 44  1  0  0  0  0
 96 48  1  0  0  0  0
 97 49  1  0  0  0  0
 98 50  1  0  0  0  0
101 54  1  0  0  0  0
102 55  1  0  0  0  0
103 56  1  0  0  0  0
106 60  1  0  0  0  0
110 62  1  0  0  0  0
111 63  1  0  0  0  0
M  END
$$$$
