O=P1(O)OC2=C(C3=CC(C(C)(C)C)=CC(C(C)(C)C)=C3)C=C4C(C=CC=C4)=C2C5=C(O1)C(C6=CC(C(C)(C)C)=CC(C(C)(C)C)=C6)=CC7=C5C=CC=C7
 OpenBabel09032010383D

106112  0  0  0  0  0  0  0  0999 V2000
    0.7746    0.4988    1.6973 O   0  0  0  0  0  0  0  0  0  0  0  0
    0.0155    0.2589    0.4305 P   0  0  0  0  0  0  0  0  0  0  0  0
   -0.9717    1.4805    0.0796 O   0  0  0  0  0  0  0  0  0  0  0  0
   -0.9737   -1.0118    0.4706 O   0  0  0  0  0  0  0  0  0  0  0  0
   -1.5875   -1.4129   -0.6960 C   0  0  0  0  0  0  0  0  0  0  0  0
   -2.9797   -1.2229   -0.7703 C   0  0  0  0  0  0  0  0  0  0  0  0
   -3.7366   -0.5587    0.3044 C   0  0  0  0  0  0  0  0  0  0  0  0
   -4.3712    0.6705    0.0741 C   0  0  0  0  0  0  0  0  0  0  0  0
   -5.0703    1.3533    1.0863 C   0  0  0  0  0  0  0  0  0  0  0  0
   -5.7387    2.7063    0.7771 C   0  0  0  0  0  0  0  0  0  0  0  0
   -6.4825    3.3307    1.9795 C   0  0  0  0  0  0  0  0  0  0  0  0
   -6.7744    2.5287   -0.3545 C   0  0  0  0  0  0  0  0  0  0  0  0
   -4.6644    3.7215    0.3293 C   0  0  0  0  0  0  0  0  0  0  0  0
   -5.1170    0.7533    2.3594 C   0  0  0  0  0  0  0  0  0  0  0  0
   -4.4992   -0.4810    2.6392 C   0  0  0  0  0  0  0  0  0  0  0  0
   -4.5406   -1.1383    4.0318 C   0  0  0  0  0  0  0  0  0  0  0  0
   -5.3270   -0.3279    5.0872 C   0  0  0  0  0  0  0  0  0  0  0  0
   -5.2114   -2.5256    3.9323 C   0  0  0  0  0  0  0  0  0  0  0  0
   -3.1016   -1.3059    4.5672 C   0  0  0  0  0  0  0  0  0  0  0  0
   -3.8161   -1.1175    1.5868 C   0  0  0  0  0  0  0  0  0  0  0  0
   -3.6346   -1.6620   -1.9210 C   0  0  0  0  0  0  0  0  0  0  0  0
   -2.9323   -2.2333   -2.9863 C   0  0  0  0  0  0  0  0  0  0  0  0
   -1.5229   -2.4022   -2.9074 C   0  0  0  0  0  0  0  0  0  0  0  0
   -0.8856   -2.8871   -4.0781 C   0  0  0  0  0  0  0  0  0  0  0  0
   -1.5950   -3.2506   -5.2260 C   0  0  0  0  0  0  0  0  0  0  0  0
   -2.9740   -3.1227   -5.2530 C   0  0  0  0  0  0  0  0  0  0  0  0
   -3.6366   -2.6102   -4.1420 C   0  0  0  0  0  0  0  0  0  0  0  0
   -0.8130   -2.0325   -1.7069 C   0  0  0  0  0  0  0  0  0  0  0  0
    0.6060   -2.2506   -1.5017 C   0  0  0  0  0  0  0  0  0  0  0  0
    1.4433   -1.1651   -1.1381 C   0  0  0  0  0  0  0  0  0  0  0  0
    0.8813    0.0740   -0.9159 O   0  0  0  0  0  0  0  0  0  0  0  0
    2.8418   -1.2537   -1.0484 C   0  0  0  0  0  0  0  0  0  0  0  0
    3.6824   -0.0928   -0.7325 C   0  0  0  0  0  0  0  0  0  0  0  0
    4.0349    0.1972    0.5913 C   0  0  0  0  0  0  0  0  0  0  0  0
    4.8457    1.2985    0.9207 C   0  0  0  0  0  0  0  0  0  0  0  0
    5.1983    1.5759    2.3942 C   0  0  0  0  0  0  0  0  0  0  0  0
    6.0781    2.8291    2.6055 C   0  0  0  0  0  0  0  0  0  0  0  0
    3.9045    1.7878    3.2104 C   0  0  0  0  0  0  0  0  0  0  0  0
    5.9733    0.3729    2.9746 C   0  0  0  0  0  0  0  0  0  0  0  0
    5.2993    2.1101   -0.1379 C   0  0  0  0  0  0  0  0  0  0  0  0
    4.9687    1.8581   -1.4840 C   0  0  0  0  0  0  0  0  0  0  0  0
    5.4552    2.7484   -2.6426 C   0  0  0  0  0  0  0  0  0  0  0  0
    6.2867    1.9037   -3.6326 C   0  0  0  0  0  0  0  0  0  0  0  0
    4.2387    3.3471   -3.3819 C   0  0  0  0  0  0  0  0  0  0  0  0
    6.3443    3.9318   -2.1971 C   0  0  0  0  0  0  0  0  0  0  0  0
    4.1543    0.7430   -1.7526 C   0  0  0  0  0  0  0  0  0  0  0  0
    3.4376   -2.4937   -1.2803 C   0  0  0  0  0  0  0  0  0  0  0  0
    2.6711   -3.6276   -1.5629 C   0  0  0  0  0  0  0  0  0  0  0  0
    1.2566   -3.5286   -1.6571 C   0  0  0  0  0  0  0  0  0  0  0  0
    0.5556   -4.7460   -1.8519 C   0  0  0  0  0  0  0  0  0  0  0  0
    1.2071   -5.9722   -2.0113 C   0  0  0  0  0  0  0  0  0  0  0  0
    2.5906   -6.0292   -1.9631 C   0  0  0  0  0  0  0  0  0  0  0  0
    3.3164   -4.8642   -1.7332 C   0  0  0  0  0  0  0  0  0  0  0  0
   -1.4811    1.7394    0.8692 H   0  0  0  0  0  0  0  0  0  0  0  0
   -4.2984    1.1085   -0.9208 H   0  0  0  0  0  0  0  0  0  0  0  0
   -5.8026    3.5292    2.8163 H   0  0  0  0  0  0  0  0  0  0  0  0
   -7.2870    2.6786    2.3390 H   0  0  0  0  0  0  0  0  0  0  0  0
   -6.9423    4.2880    1.7058 H   0  0  0  0  0  0  0  0  0  0  0  0
   -6.3138    2.1971   -1.2915 H   0  0  0  0  0  0  0  0  0  0  0  0
   -7.5340    1.7869   -0.0806 H   0  0  0  0  0  0  0  0  0  0  0  0
   -7.2910    3.4716   -0.5690 H   0  0  0  0  0  0  0  0  0  0  0  0
   -5.1068    4.7058    0.1361 H   0  0  0  0  0  0  0  0  0  0  0  0
   -3.8948    3.8469    1.1003 H   0  0  0  0  0  0  0  0  0  0  0  0
   -4.1587    3.4118   -0.5918 H   0  0  0  0  0  0  0  0  0  0  0  0
   -5.6502    1.2610    3.1560 H   0  0  0  0  0  0  0  0  0  0  0  0
   -5.3267   -0.8384    6.0579 H   0  0  0  0  0  0  0  0  0  0  0  0
   -4.8865    0.6633    5.2458 H   0  0  0  0  0  0  0  0  0  0  0  0
   -6.3751   -0.1943    4.7948 H   0  0  0  0  0  0  0  0  0  0  0  0
   -5.2860   -3.0002    4.9177 H   0  0  0  0  0  0  0  0  0  0  0  0
   -4.6514   -3.2128    3.2887 H   0  0  0  0  0  0  0  0  0  0  0  0
   -6.2256   -2.4445    3.5234 H   0  0  0  0  0  0  0  0  0  0  0  0
   -3.1025   -1.7390    5.5742 H   0  0  0  0  0  0  0  0  0  0  0  0
   -2.4976   -1.9666    3.9357 H   0  0  0  0  0  0  0  0  0  0  0  0
   -2.5856   -0.3398    4.6198 H   0  0  0  0  0  0  0  0  0  0  0  0
   -3.3212   -2.0719    1.7625 H   0  0  0  0  0  0  0  0  0  0  0  0
   -4.7141   -1.5321   -1.9926 H   0  0  0  0  0  0  0  0  0  0  0  0
    0.1983   -2.9776   -4.1195 H   0  0  0  0  0  0  0  0  0  0  0  0
   -1.0619   -3.6253   -6.0957 H   0  0  0  0  0  0  0  0  0  0  0  0
   -3.5333   -3.4004   -6.1416 H   0  0  0  0  0  0  0  0  0  0  0  0
   -4.7175   -2.4914   -4.1932 H   0  0  0  0  0  0  0  0  0  0  0  0
    3.6522   -0.4488    1.3804 H   0  0  0  0  0  0  0  0  0  0  0  0
    7.0406    2.7389    2.0885 H   0  0  0  0  0  0  0  0  0  0  0  0
    6.2985    2.9825    3.6688 H   0  0  0  0  0  0  0  0  0  0  0  0
    5.5797    3.7371    2.2462 H   0  0  0  0  0  0  0  0  0  0  0  0
    4.1315    2.0372    4.2536 H   0  0  0  0  0  0  0  0  0  0  0  0
    3.3048    2.6060    2.7944 H   0  0  0  0  0  0  0  0  0  0  0  0
    3.2741    0.8924    3.2281 H   0  0  0  0  0  0  0  0  0  0  0  0
    6.2665    0.5562    4.0149 H   0  0  0  0  0  0  0  0  0  0  0  0
    6.8864    0.1778    2.3998 H   0  0  0  0  0  0  0  0  0  0  0  0
    5.3778   -0.5467    2.9672 H   0  0  0  0  0  0  0  0  0  0  0  0
    5.9240    2.9656    0.0936 H   0  0  0  0  0  0  0  0  0  0  0  0
    7.1425    1.4370   -3.1304 H   0  0  0  0  0  0  0  0  0  0  0  0
    6.6760    2.5221   -4.4499 H   0  0  0  0  0  0  0  0  0  0  0  0
    5.6977    1.1021   -4.0915 H   0  0  0  0  0  0  0  0  0  0  0  0
    3.6068    2.5751   -3.8345 H   0  0  0  0  0  0  0  0  0  0  0  0
    4.5573    4.0145   -4.1912 H   0  0  0  0  0  0  0  0  0  0  0  0
    3.6089    3.9286   -2.6982 H   0  0  0  0  0  0  0  0  0  0  0  0
    6.6645    4.5312   -3.0579 H   0  0  0  0  0  0  0  0  0  0  0  0
    5.8091    4.6058   -1.5181 H   0  0  0  0  0  0  0  0  0  0  0  0
    7.2529    3.5857   -1.6907 H   0  0  0  0  0  0  0  0  0  0  0  0
    3.8692    0.5130   -2.7777 H   0  0  0  0  0  0  0  0  0  0  0  0
    4.5224   -2.5732   -1.2127 H   0  0  0  0  0  0  0  0  0  0  0  0
   -0.5328   -4.7591   -1.8693 H   0  0  0  0  0  0  0  0  0  0  0  0
    0.6261   -6.8775   -2.1657 H   0  0  0  0  0  0  0  0  0  0  0  0
    3.1054   -6.9781   -2.0849 H   0  0  0  0  0  0  0  0  0  0  0  0
    4.4013   -4.9327   -1.6729 H   0  0  0  0  0  0  0  0  0  0  0  0
  2  4  1  0  0  0  0
  2  1  2  0  0  0  0
  3  2  1  0  0  0  0
  3 54  1  0  0  0  0
  5  4  1  0  0  0  0
  6  5  1  0  0  0  0
  6  7  1  0  0  0  0
  7 20  1  0  0  0  0
  8  7  2  0  0  0  0
  8  9  1  0  0  0  0
  9 14  2  0  0  0  0
 10  9  1  0  0  0  0
 10 11  1  0  0  0  0
 11 57  1  0  0  0  0
 11 56  1  0  0  0  0
 12 60  1  0  0  0  0
 12 10  1  0  0  0  0
 13 10  1  0  0  0  0
 13 63  1  0  0  0  0
 14 15  1  0  0  0  0
 14 65  1  0  0  0  0
 15 16  1  0  0  0  0
 16 19  1  0  0  0  0
 16 17  1  0  0  0  0
 17 67  1  0  0  0  0
 17 66  1  0  0  0  0
 18 16  1  0  0  0  0
 18 69  1  0  0  0  0
 19 74  1  0  0  0  0
 19 72  1  0  0  0  0
 20 75  1  0  0  0  0
 20 15  2  0  0  0  0
 21  6  2  0  0  0  0
 22 23  1  0  0  0  0
 22 21  1  0  0  0  0
 23 28  1  0  0  0  0
 24 23  2  0  0  0  0
 25 24  1  0  0  0  0
 26 25  2  0  0  0  0
 26 27  1  0  0  0  0
 27 22  2  0  0  0  0
 28 29  1  0  0  0  0
 28  5  2  0  0  0  0
 29 30  2  0  0  0  0
 30 32  1  0  0  0  0
 30 31  1  0  0  0  0
 31  2  1  0  0  0  0
 32 33  1  0  0  0  0
 33 34  2  0  0  0  0
 34 35  1  0  0  0  0
 34 81  1  0  0  0  0
 35 36  1  0  0  0  0
 36 37  1  0  0  0  0
 36 39  1  0  0  0  0
 36 38  1  0  0  0  0
 37 83  1  0  0  0  0
 38 87  1  0  0  0  0
 38 85  1  0  0  0  0
 39 88  1  0  0  0  0
 40 91  1  0  0  0  0
 40 35  2  0  0  0  0
 41 40  1  0  0  0  0
 42 45  1  0  0  0  0
 42 41  1  0  0  0  0
 43 92  1  0  0  0  0
 43 42  1  0  0  0  0
 44 97  1  0  0  0  0
 44 42  1  0  0  0  0
 45100  1  0  0  0  0
 45 99  1  0  0  0  0
 46 41  2  0  0  0  0
 46 33  1  0  0  0  0
 47102  1  0  0  0  0
 47 32  2  0  0  0  0
 48 47  1  0  0  0  0
 49 48  1  0  0  0  0
 49 29  1  0  0  0  0
 50 49  2  0  0  0  0
 51 52  2  0  0  0  0
 51 50  1  0  0  0  0
 52 53  1  0  0  0  0
 53106  1  0  0  0  0
 53 48  2  0  0  0  0
 55  8  1  0  0  0  0
 58 11  1  0  0  0  0
 59 12  1  0  0  0  0
 61 12  1  0  0  0  0
 62 13  1  0  0  0  0
 64 13  1  0  0  0  0
 68 17  1  0  0  0  0
 70 18  1  0  0  0  0
 71 18  1  0  0  0  0
 73 19  1  0  0  0  0
 76 21  1  0  0  0  0
 77 24  1  0  0  0  0
 78 25  1  0  0  0  0
 79 26  1  0  0  0  0
 80 27  1  0  0  0  0
 82 37  1  0  0  0  0
 84 37  1  0  0  0  0
 86 38  1  0  0  0  0
 89 39  1  0  0  0  0
 90 39  1  0  0  0  0
 93 43  1  0  0  0  0
 94 43  1  0  0  0  0
 95 44  1  0  0  0  0
 96 44  1  0  0  0  0
 98 45  1  0  0  0  0
101 46  1  0  0  0  0
103 50  1  0  0  0  0
104 51  1  0  0  0  0
105 52  1  0  0  0  0
M  END
$$$$
