O=P1(O)OC2=C(C3=C(OC)C=CC=C3OC)C=C4C(C=CC=C4)=C2C5=C(O1)[C@@]([C@@]6=C(OC)C=CC=C6OC)=CC7=C5C=CC=C7
 OpenBabel09032010373D

 74 80  0  0  0  0  0  0  0  0999 V2000
    0.9094    3.0577   -0.7588 O   0  0  0  0  0  0  0  0  0  0  0  0
    0.3284    1.7035   -1.0188 P   0  0  0  0  0  0  0  0  0  0  0  0
   -0.4813    1.6581   -2.4098 O   0  0  0  0  0  0  0  0  0  0  0  0
    1.3493    0.4774   -1.2080 O   0  0  0  0  0  0  0  0  0  0  0  0
    1.6303   -0.3803   -0.1691 C   0  0  0  0  0  0  0  0  0  0  0  0
    2.9740   -0.4293    0.2442 C   0  0  0  0  0  0  0  0  0  0  0  0
    3.9921    0.4972   -0.2858 C   0  0  0  0  0  0  0  0  0  0  0  0
    4.8676    0.1033   -1.3155 C   0  0  0  0  0  0  0  0  0  0  0  0
    4.8148   -1.1780   -1.8105 O   0  0  0  0  0  0  0  0  0  0  0  0
    4.1638   -1.1904   -3.0816 C   0  0  0  0  0  0  0  0  0  0  0  0
    5.8524    0.9663   -1.7998 C   0  0  0  0  0  0  0  0  0  0  0  0
    5.9572    2.2534   -1.2826 C   0  0  0  0  0  0  0  0  0  0  0  0
    5.0903    2.6740   -0.2717 C   0  0  0  0  0  0  0  0  0  0  0  0
    4.1104    1.8083    0.2305 C   0  0  0  0  0  0  0  0  0  0  0  0
    3.2466    2.1359    1.2484 O   0  0  0  0  0  0  0  0  0  0  0  0
    3.1125    3.5143    1.5703 C   0  0  0  0  0  0  0  0  0  0  0  0
    3.3391   -1.3752    1.2019 C   0  0  0  0  0  0  0  0  0  0  0  0
    2.3962   -2.2258    1.7781 C   0  0  0  0  0  0  0  0  0  0  0  0
    1.0338   -2.1551    1.3803 C   0  0  0  0  0  0  0  0  0  0  0  0
    0.1366   -2.9747    2.1152 C   0  0  0  0  0  0  0  0  0  0  0  0
    0.5600   -3.8604    3.1113 C   0  0  0  0  0  0  0  0  0  0  0  0
    1.9043   -3.9464    3.4312 C   0  0  0  0  0  0  0  0  0  0  0  0
    2.8148   -3.1256    2.7739 C   0  0  0  0  0  0  0  0  0  0  0  0
    0.6236   -1.2486    0.3296 C   0  0  0  0  0  0  0  0  0  0  0  0
   -0.7356   -1.1949   -0.1788 C   0  0  0  0  0  0  0  0  0  0  0  0
   -1.4326    0.0334   -0.1829 C   0  0  0  0  0  0  0  0  0  0  0  0
   -0.7552    1.2027    0.0670 O   0  0  0  0  0  0  0  0  0  0  0  0
   -2.8211    0.1482   -0.3768 C   0  0  0  0  0  0  0  0  0  0  0  0
   -3.5366    1.4232   -0.1688 C   0  0  0  0  0  0  0  0  0  0  0  0
   -4.0815    1.7414    1.0910 C   0  0  0  0  0  0  0  0  0  0  0  0
   -3.9847    0.8410    2.1251 O   0  0  0  0  0  0  0  0  0  0  0  0
   -2.9709    1.2505    3.0466 C   0  0  0  0  0  0  0  0  0  0  0  0
   -4.7799    2.9342    1.3092 C   0  0  0  0  0  0  0  0  0  0  0  0
   -4.9080    3.8629    0.2802 C   0  0  0  0  0  0  0  0  0  0  0  0
   -4.3529    3.5906   -0.9674 C   0  0  0  0  0  0  0  0  0  0  0  0
   -3.6958    2.3750   -1.1920 C   0  0  0  0  0  0  0  0  0  0  0  0
   -3.1199    2.1703   -2.4225 O   0  0  0  0  0  0  0  0  0  0  0  0
   -4.1079    1.7514   -3.3681 C   0  0  0  0  0  0  0  0  0  0  0  0
   -3.5311   -1.0060   -0.7078 C   0  0  0  0  0  0  0  0  0  0  0  0
   -2.8831   -2.2342   -0.8698 C   0  0  0  0  0  0  0  0  0  0  0  0
   -1.4875   -2.3415   -0.6226 C   0  0  0  0  0  0  0  0  0  0  0  0
   -0.8975   -3.6050   -0.8749 C   0  0  0  0  0  0  0  0  0  0  0  0
   -1.6438   -4.7117   -1.2885 C   0  0  0  0  0  0  0  0  0  0  0  0
   -3.0112   -4.5896   -1.4791 C   0  0  0  0  0  0  0  0  0  0  0  0
   -3.6253   -3.3568   -1.2749 C   0  0  0  0  0  0  0  0  0  0  0  0
   -1.2557    2.2558   -2.3968 H   0  0  0  0  0  0  0  0  0  0  0  0
    3.9844   -2.2346   -3.3546 H   0  0  0  0  0  0  0  0  0  0  0  0
    3.1960   -0.6783   -3.0493 H   0  0  0  0  0  0  0  0  0  0  0  0
    4.8033   -0.7451   -3.8510 H   0  0  0  0  0  0  0  0  0  0  0  0
    6.5403    0.6312   -2.5699 H   0  0  0  0  0  0  0  0  0  0  0  0
    6.7218    2.9289   -1.6573 H   0  0  0  0  0  0  0  0  0  0  0  0
    5.2121    3.6791    0.1182 H   0  0  0  0  0  0  0  0  0  0  0  0
    2.2499    3.6200    2.2352 H   0  0  0  0  0  0  0  0  0  0  0  0
    2.9275    4.1274    0.6824 H   0  0  0  0  0  0  0  0  0  0  0  0
    3.9961    3.8689    2.1106 H   0  0  0  0  0  0  0  0  0  0  0  0
    4.3801   -1.4196    1.5189 H   0  0  0  0  0  0  0  0  0  0  0  0
   -0.9346   -2.9255    1.9296 H   0  0  0  0  0  0  0  0  0  0  0  0
   -0.1691   -4.4726    3.6352 H   0  0  0  0  0  0  0  0  0  0  0  0
    2.2434   -4.6306    4.2036 H   0  0  0  0  0  0  0  0  0  0  0  0
    3.8639   -3.1814    3.0590 H   0  0  0  0  0  0  0  0  0  0  0  0
   -3.3212    2.0908    3.6551 H   0  0  0  0  0  0  0  0  0  0  0  0
   -2.7690    0.4088    3.7158 H   0  0  0  0  0  0  0  0  0  0  0  0
   -2.0356    1.5134    2.5412 H   0  0  0  0  0  0  0  0  0  0  0  0
   -5.2176    3.1383    2.2823 H   0  0  0  0  0  0  0  0  0  0  0  0
   -5.4314    4.7995    0.4529 H   0  0  0  0  0  0  0  0  0  0  0  0
   -4.4258    4.3271   -1.7628 H   0  0  0  0  0  0  0  0  0  0  0  0
   -4.7792    2.5785   -3.6219 H   0  0  0  0  0  0  0  0  0  0  0  0
   -4.6819    0.8936   -3.0009 H   0  0  0  0  0  0  0  0  0  0  0  0
   -3.5870    1.4455   -4.2803 H   0  0  0  0  0  0  0  0  0  0  0  0
   -4.6080   -0.9361   -0.8524 H   0  0  0  0  0  0  0  0  0  0  0  0
    0.1769   -3.7421   -0.7603 H   0  0  0  0  0  0  0  0  0  0  0  0
   -1.1482   -5.6630   -1.4624 H   0  0  0  0  0  0  0  0  0  0  0  0
   -3.5985   -5.4462   -1.7981 H   0  0  0  0  0  0  0  0  0  0  0  0
   -4.6971   -3.2763   -1.4460 H   0  0  0  0  0  0  0  0  0  0  0  0
  2  1  2  0  0  0  0
  2 27  1  0  0  0  0
  3 46  1  0  0  0  0
  3  2  1  0  0  0  0
  4  2  1  0  0  0  0
  4  5  1  0  0  0  0
  5  6  2  0  0  0  0
  5 24  1  0  0  0  0
  6 17  1  0  0  0  0
  7 14  2  0  0  0  0
  7  6  1  0  0  0  0
  8  7  1  0  0  0  0
  9  8  1  0  0  0  0
 10 48  1  0  0  0  0
 10  9  1  0  0  0  0
 11  8  2  0  0  0  0
 11 12  1  0  0  0  0
 12 13  2  0  0  0  0
 13 52  1  0  0  0  0
 13 14  1  0  0  0  0
 14 15  1  0  0  0  0
 15 16  1  0  0  0  0
 16 55  1  0  0  0  0
 16 53  1  0  0  0  0
 17 56  1  0  0  0  0
 17 18  2  0  0  0  0
 18 23  1  0  0  0  0
 19 18  1  0  0  0  0
 19 20  1  0  0  0  0
 20 21  2  0  0  0  0
 21 22  1  0  0  0  0
 21 58  1  0  0  0  0
 22 59  1  0  0  0  0
 23 60  1  0  0  0  0
 23 22  2  0  0  0  0
 24 19  2  0  0  0  0
 25 24  1  0  0  0  0
 26 25  2  0  0  0  0
 26 27  1  0  0  0  0
 28 26  1  0  0  0  0
 28 29  1  0  0  0  0
 29 30  2  0  0  0  0
 30 33  1  0  0  0  0
 30 31  1  0  0  0  0
 31 32  1  0  0  0  0
 32 61  1  0  0  0  0
 32 62  1  0  0  0  0
 33 64  1  0  0  0  0
 34 65  1  0  0  0  0
 34 33  2  0  0  0  0
 35 34  1  0  0  0  0
 36 35  2  0  0  0  0
 36 29  1  0  0  0  0
 37 36  1  0  0  0  0
 38 68  1  0  0  0  0
 38 37  1  0  0  0  0
 39 28  2  0  0  0  0
 40 39  1  0  0  0  0
 40 41  1  0  0  0  0
 41 25  1  0  0  0  0
 42 71  1  0  0  0  0
 42 41  2  0  0  0  0
 43 42  1  0  0  0  0
 44 43  2  0  0  0  0
 44 45  1  0  0  0  0
 45 40  2  0  0  0  0
 47 10  1  0  0  0  0
 49 10  1  0  0  0  0
 50 11  1  0  0  0  0
 51 12  1  0  0  0  0
 54 16  1  0  0  0  0
 57 20  1  0  0  0  0
 63 32  1  0  0  0  0
 66 35  1  0  0  0  0
 67 38  1  0  0  0  0
 69 38  1  0  0  0  0
 70 39  1  0  0  0  0
 72 43  1  0  0  0  0
 73 44  1  0  0  0  0
 74 45  1  0  0  0  0
M  END
$$$$
