O=P1(O)OC2=C(C3=CC(C(C)(C)C)=CC(C(C)(C)C)=C3)C=C4C(CCCC4)=C2C5=C(O1)C(C6=CC(C(C)(C)C)=CC(C(C)(C)C)=C6)=CC7=C5CCCC7
 OpenBabel09032010373D

114120  0  0  0  0  0  0  0  0999 V2000
    0.5413   -0.6525    2.0693 O   0  0  0  0  0  0  0  0  0  0  0  0
    0.0015    0.0559    0.8657 P   0  0  0  0  0  0  0  0  0  0  0  0
   -0.6237    1.4868    1.2588 O   0  0  0  0  0  0  0  0  0  0  0  0
    1.0603    0.4138   -0.2993 O   0  0  0  0  0  0  0  0  0  0  0  0
    1.3820   -0.5911   -1.1859 C   0  0  0  0  0  0  0  0  0  0  0  0
    2.6869   -1.1082   -1.1413 C   0  0  0  0  0  0  0  0  0  0  0  0
    3.7118   -0.5846   -0.2281 C   0  0  0  0  0  0  0  0  0  0  0  0
    4.6556    0.3496   -0.6842 C   0  0  0  0  0  0  0  0  0  0  0  0
    5.6515    0.8634    0.1586 C   0  0  0  0  0  0  0  0  0  0  0  0
    6.6919    1.8934   -0.3155 C   0  0  0  0  0  0  0  0  0  0  0  0
    6.5451    2.2930   -1.8014 C   0  0  0  0  0  0  0  0  0  0  0  0
    6.5598    3.1859    0.5189 C   0  0  0  0  0  0  0  0  0  0  0  0
    8.1131    1.3161   -0.1383 C   0  0  0  0  0  0  0  0  0  0  0  0
    5.6690    0.4014    1.4915 C   0  0  0  0  0  0  0  0  0  0  0  0
    4.7439   -0.5382    1.9933 C   0  0  0  0  0  0  0  0  0  0  0  0
    4.8184   -0.9880    3.4633 C   0  0  0  0  0  0  0  0  0  0  0  0
    6.2055   -1.6028    3.7522 C   0  0  0  0  0  0  0  0  0  0  0  0
    3.7642   -2.0501    3.8500 C   0  0  0  0  0  0  0  0  0  0  0  0
    4.5994    0.2305    4.3856 C   0  0  0  0  0  0  0  0  0  0  0  0
    3.7707   -1.0174    1.1053 C   0  0  0  0  0  0  0  0  0  0  0  0
    3.0026   -2.1606   -2.0036 C   0  0  0  0  0  0  0  0  0  0  0  0
    2.0407   -2.7185   -2.8576 C   0  0  0  0  0  0  0  0  0  0  0  0
    0.7324   -2.1803   -2.8891 C   0  0  0  0  0  0  0  0  0  0  0  0
   -0.3463   -2.9027   -3.6850 C   0  0  0  0  0  0  0  0  0  0  0  0
    0.0084   -4.3473   -4.0349 C   0  0  0  0  0  0  0  0  0  0  0  0
    1.3922   -4.3954   -4.6614 C   0  0  0  0  0  0  0  0  0  0  0  0
    2.4368   -3.9453   -3.6475 C   0  0  0  0  0  0  0  0  0  0  0  0
    0.4011   -1.0277   -2.1088 C   0  0  0  0  0  0  0  0  0  0  0  0
   -0.8542   -0.3329   -2.2036 C   0  0  0  0  0  0  0  0  0  0  0  0
   -1.6807   -0.2095   -1.0640 C   0  0  0  0  0  0  0  0  0  0  0  0
   -1.2283   -0.6967    0.1419 O   0  0  0  0  0  0  0  0  0  0  0  0
   -2.9602    0.3745   -1.0807 C   0  0  0  0  0  0  0  0  0  0  0  0
   -3.7853    0.4827    0.1349 C   0  0  0  0  0  0  0  0  0  0  0  0
   -4.2405   -0.6638    0.8038 C   0  0  0  0  0  0  0  0  0  0  0  0
   -4.9969   -0.5826    1.9826 C   0  0  0  0  0  0  0  0  0  0  0  0
   -5.4940   -1.8322    2.7336 C   0  0  0  0  0  0  0  0  0  0  0  0
   -5.0892   -3.1671    2.0673 C   0  0  0  0  0  0  0  0  0  0  0  0
   -4.9114   -1.8436    4.1636 C   0  0  0  0  0  0  0  0  0  0  0  0
   -7.0360   -1.8126    2.8117 C   0  0  0  0  0  0  0  0  0  0  0  0
   -5.2935    0.7064    2.4785 C   0  0  0  0  0  0  0  0  0  0  0  0
   -4.8635    1.8850    1.8432 C   0  0  0  0  0  0  0  0  0  0  0  0
   -5.1796    3.2896    2.3879 C   0  0  0  0  0  0  0  0  0  0  0  0
   -3.8614    4.0251    2.7135 C   0  0  0  0  0  0  0  0  0  0  0  0
   -6.0309    3.2862    3.6778 C   0  0  0  0  0  0  0  0  0  0  0  0
   -5.9632    4.0946    1.3284 C   0  0  0  0  0  0  0  0  0  0  0  0
   -4.1079    1.7409    0.6662 C   0  0  0  0  0  0  0  0  0  0  0  0
   -3.4184    0.8944   -2.2928 C   0  0  0  0  0  0  0  0  0  0  0  0
   -2.6146    0.8851   -3.4424 C   0  0  0  0  0  0  0  0  0  0  0  0
   -1.3208    0.3117   -3.3934 C   0  0  0  0  0  0  0  0  0  0  0  0
   -0.3915    0.4830   -4.5881 C   0  0  0  0  0  0  0  0  0  0  0  0
   -0.8168    1.5932   -5.5480 C   0  0  0  0  0  0  0  0  0  0  0  0
   -2.2820    1.4190   -5.9112 C   0  0  0  0  0  0  0  0  0  0  0  0
   -3.1475    1.5909   -4.6692 C   0  0  0  0  0  0  0  0  0  0  0  0
   -1.1617    1.4040    2.0671 H   0  0  0  0  0  0  0  0  0  0  0  0
    4.5830    0.6699   -1.7204 H   0  0  0  0  0  0  0  0  0  0  0  0
    6.6597    1.4280   -2.4651 H   0  0  0  0  0  0  0  0  0  0  0  0
    5.5696    2.7511   -2.0019 H   0  0  0  0  0  0  0  0  0  0  0  0
    7.3092    3.0244   -2.0912 H   0  0  0  0  0  0  0  0  0  0  0  0
    7.2670    3.9508    0.1773 H   0  0  0  0  0  0  0  0  0  0  0  0
    6.7615    3.0161    1.5822 H   0  0  0  0  0  0  0  0  0  0  0  0
    5.5499    3.6054    0.4388 H   0  0  0  0  0  0  0  0  0  0  0  0
    8.8728    2.0171   -0.5037 H   0  0  0  0  0  0  0  0  0  0  0  0
    8.2297    0.3782   -0.6942 H   0  0  0  0  0  0  0  0  0  0  0  0
    8.3492    1.1078    0.9109 H   0  0  0  0  0  0  0  0  0  0  0  0
    6.4280    0.7925    2.1665 H   0  0  0  0  0  0  0  0  0  0  0  0
    6.2689   -1.9677    4.7841 H   0  0  0  0  0  0  0  0  0  0  0  0
    6.4076   -2.4498    3.0858 H   0  0  0  0  0  0  0  0  0  0  0  0
    7.0174   -0.8794    3.6203 H   0  0  0  0  0  0  0  0  0  0  0  0
    3.8689   -2.3462    4.9008 H   0  0  0  0  0  0  0  0  0  0  0  0
    2.7436   -1.6710    3.7254 H   0  0  0  0  0  0  0  0  0  0  0  0
    3.8677   -2.9596    3.2467 H   0  0  0  0  0  0  0  0  0  0  0  0
    4.6159   -0.0647    5.4412 H   0  0  0  0  0  0  0  0  0  0  0  0
    5.3738    0.9942    4.2540 H   0  0  0  0  0  0  0  0  0  0  0  0
    3.6316    0.7063    4.1871 H   0  0  0  0  0  0  0  0  0  0  0  0
    3.0237   -1.7356    1.4358 H   0  0  0  0  0  0  0  0  0  0  0  0
    4.0058   -2.5856   -1.9751 H   0  0  0  0  0  0  0  0  0  0  0  0
   -0.5312   -2.3727   -4.6204 H   0  0  0  0  0  0  0  0  0  0  0  0
   -1.2830   -2.9177   -3.1153 H   0  0  0  0  0  0  0  0  0  0  0  0
   -0.7358   -4.7499   -4.7311 H   0  0  0  0  0  0  0  0  0  0  0  0
   -0.0185   -4.9738   -3.1345 H   0  0  0  0  0  0  0  0  0  0  0  0
    1.6223   -5.4104   -5.0038 H   0  0  0  0  0  0  0  0  0  0  0  0
    1.4217   -3.7443   -5.5443 H   0  0  0  0  0  0  0  0  0  0  0  0
    2.6112   -4.7615   -2.9344 H   0  0  0  0  0  0  0  0  0  0  0  0
    3.3816   -3.7577   -4.1717 H   0  0  0  0  0  0  0  0  0  0  0  0
   -3.9782   -1.6293    0.3774 H   0  0  0  0  0  0  0  0  0  0  0  0
   -3.9998   -3.2750    2.0086 H   0  0  0  0  0  0  0  0  0  0  0  0
   -5.4969   -3.2520    1.0533 H   0  0  0  0  0  0  0  0  0  0  0  0
   -5.4666   -4.0240    2.6384 H   0  0  0  0  0  0  0  0  0  0  0  0
   -3.8152   -1.8256    4.1427 H   0  0  0  0  0  0  0  0  0  0  0  0
   -5.2429   -0.9826    4.7543 H   0  0  0  0  0  0  0  0  0  0  0  0
   -5.2200   -2.7431    4.7090 H   0  0  0  0  0  0  0  0  0  0  0  0
   -7.4180   -2.7113    3.3101 H   0  0  0  0  0  0  0  0  0  0  0  0
   -7.4809   -1.7718    1.8103 H   0  0  0  0  0  0  0  0  0  0  0  0
   -7.4129   -0.9513    3.3739 H   0  0  0  0  0  0  0  0  0  0  0  0
   -5.8794    0.7755    3.3913 H   0  0  0  0  0  0  0  0  0  0  0  0
   -4.0565    5.0172    3.1372 H   0  0  0  0  0  0  0  0  0  0  0  0
   -3.2654    3.4623    3.4418 H   0  0  0  0  0  0  0  0  0  0  0  0
   -3.2385    4.1736    1.8246 H   0  0  0  0  0  0  0  0  0  0  0  0
   -5.5208    2.7663    4.4971 H   0  0  0  0  0  0  0  0  0  0  0  0
   -6.2312    4.3082    4.0216 H   0  0  0  0  0  0  0  0  0  0  0  0
   -7.0025    2.8040    3.5186 H   0  0  0  0  0  0  0  0  0  0  0  0
   -6.8910    3.5808    1.0499 H   0  0  0  0  0  0  0  0  0  0  0  0
   -6.2324    5.0880    1.7061 H   0  0  0  0  0  0  0  0  0  0  0  0
   -5.3843    4.2480    0.4111 H   0  0  0  0  0  0  0  0  0  0  0  0
   -3.7396    2.6262    0.1491 H   0  0  0  0  0  0  0  0  0  0  0  0
   -4.4055    1.3542   -2.3357 H   0  0  0  0  0  0  0  0  0  0  0  0
   -0.3514   -0.4467   -5.1576 H   0  0  0  0  0  0  0  0  0  0  0  0
    0.6234    0.7121   -4.2428 H   0  0  0  0  0  0  0  0  0  0  0  0
   -0.1968    1.5556   -6.4507 H   0  0  0  0  0  0  0  0  0  0  0  0
   -0.6579    2.5760   -5.0867 H   0  0  0  0  0  0  0  0  0  0  0  0
   -2.4406    0.4231   -6.3440 H   0  0  0  0  0  0  0  0  0  0  0  0
   -2.5775    2.1499   -6.6721 H   0  0  0  0  0  0  0  0  0  0  0  0
   -4.1601    1.2324   -4.8901 H   0  0  0  0  0  0  0  0  0  0  0  0
   -3.2198    2.6611   -4.4354 H   0  0  0  0  0  0  0  0  0  0  0  0
  2  3  1  0  0  0  0
  2  1  2  0  0  0  0
  3 54  1  0  0  0  0
  4  2  1  0  0  0  0
  5  6  1  0  0  0  0
  5  4  1  0  0  0  0
  6  7  1  0  0  0  0
  7 20  1  0  0  0  0
  8  7  2  0  0  0  0
  8  9  1  0  0  0  0
  9 14  2  0  0  0  0
 10 13  1  0  0  0  0
 10  9  1  0  0  0  0
 10 12  1  0  0  0  0
 11 10  1  0  0  0  0
 12 60  1  0  0  0  0
 13 64  1  0  0  0  0
 14 15  1  0  0  0  0
 14 65  1  0  0  0  0
 15 16  1  0  0  0  0
 16 17  1  0  0  0  0
 16 18  1  0  0  0  0
 16 19  1  0  0  0  0
 17 66  1  0  0  0  0
 18 69  1  0  0  0  0
 19 72  1  0  0  0  0
 20 75  1  0  0  0  0
 20 15  2  0  0  0  0
 21 76  1  0  0  0  0
 21  6  2  0  0  0  0
 22 21  1  0  0  0  0
 23 22  2  0  0  0  0
 23 28  1  0  0  0  0
 24 78  1  0  0  0  0
 24 23  1  0  0  0  0
 25 24  1  0  0  0  0
 25 80  1  0  0  0  0
 26 25  1  0  0  0  0
 26 27  1  0  0  0  0
 27 83  1  0  0  0  0
 27 22  1  0  0  0  0
 28  5  2  0  0  0  0
 29 28  1  0  0  0  0
 29 30  2  0  0  0  0
 30 31  1  0  0  0  0
 31  2  1  0  0  0  0
 32 30  1  0  0  0  0
 32 33  1  0  0  0  0
 33 46  2  0  0  0  0
 33 34  1  0  0  0  0
 34 35  2  0  0  0  0
 35 40  1  0  0  0  0
 35 36  1  0  0  0  0
 36 39  1  0  0  0  0
 36 38  1  0  0  0  0
 37 88  1  0  0  0  0
 37 36  1  0  0  0  0
 38 91  1  0  0  0  0
 38 90  1  0  0  0  0
 39 92  1  0  0  0  0
 39 94  1  0  0  0  0
 40 95  1  0  0  0  0
 41 42  1  0  0  0  0
 41 40  2  0  0  0  0
 42 43  1  0  0  0  0
 42 44  1  0  0  0  0
 43 96  1  0  0  0  0
 43 97  1  0  0  0  0
 44100  1  0  0  0  0
 44 99  1  0  0  0  0
 45103  1  0  0  0  0
 45 42  1  0  0  0  0
 46 41  1  0  0  0  0
 47 32  2  0  0  0  0
 48 49  2  0  0  0  0
 48 47  1  0  0  0  0
 49 29  1  0  0  0  0
 50108  1  0  0  0  0
 50 49  1  0  0  0  0
 51110  1  0  0  0  0
 51 50  1  0  0  0  0
 52 51  1  0  0  0  0
 52 53  1  0  0  0  0
 53114  1  0  0  0  0
 53 48  1  0  0  0  0
 55  8  1  0  0  0  0
 56 11  1  0  0  0  0
 57 11  1  0  0  0  0
 58 11  1  0  0  0  0
 59 12  1  0  0  0  0
 61 12  1  0  0  0  0
 62 13  1  0  0  0  0
 63 13  1  0  0  0  0
 67 17  1  0  0  0  0
 68 17  1  0  0  0  0
 70 18  1  0  0  0  0
 71 18  1  0  0  0  0
 73 19  1  0  0  0  0
 74 19  1  0  0  0  0
 77 24  1  0  0  0  0
 79 25  1  0  0  0  0
 81 26  1  0  0  0  0
 82 26  1  0  0  0  0
 84 27  1  0  0  0  0
 85 34  1  0  0  0  0
 86 37  1  0  0  0  0
 87 37  1  0  0  0  0
 89 38  1  0  0  0  0
 93 39  1  0  0  0  0
 98 43  1  0  0  0  0
101 44  1  0  0  0  0
102 45  1  0  0  0  0
104 45  1  0  0  0  0
105 46  1  0  0  0  0
106 47  1  0  0  0  0
107 50  1  0  0  0  0
109 51  1  0  0  0  0
111 52  1  0  0  0  0
112 52  1  0  0  0  0
113 53  1  0  0  0  0
M  END
$$$$
