O=P1(O)OC2=C(C3=CC=C(OC)C=C3)C=C4C(C=CC=C4)=C2C5=C(O1)C(C6=CC=C(OC)C=C6)=CC7=C5C=CC=C7
 OpenBabel09032010383D

 66 72  0  0  0  0  0  0  0  0999 V2000
    0.1607    2.8517    0.5770 O   0  0  0  0  0  0  0  0  0  0  0  0
   -0.2083    1.6173   -0.1846 P   0  0  0  0  0  0  0  0  0  0  0  0
   -0.9511    1.9752   -1.5660 O   0  0  0  0  0  0  0  0  0  0  0  0
    1.0051    0.6623   -0.6437 O   0  0  0  0  0  0  0  0  0  0  0  0
    1.5265   -0.1904    0.3050 C   0  0  0  0  0  0  0  0  0  0  0  0
    2.8318    0.0752    0.7508 C   0  0  0  0  0  0  0  0  0  0  0  0
    3.6247    1.1991    0.2387 C   0  0  0  0  0  0  0  0  0  0  0  0
    4.5291    1.0119   -0.8167 C   0  0  0  0  0  0  0  0  0  0  0  0
    5.2976    2.0755   -1.3062 C   0  0  0  0  0  0  0  0  0  0  0  0
    5.1727    3.3460   -0.7458 C   0  0  0  0  0  0  0  0  0  0  0  0
    5.8593    4.4657   -1.1266 O   0  0  0  0  0  0  0  0  0  0  0  0
    6.7608    4.3268   -2.2171 C   0  0  0  0  0  0  0  0  0  0  0  0
    4.2748    3.5397    0.3054 C   0  0  0  0  0  0  0  0  0  0  0  0
    3.5080    2.4783    0.7952 C   0  0  0  0  0  0  0  0  0  0  0  0
    3.3858   -0.7805    1.7037 C   0  0  0  0  0  0  0  0  0  0  0  0
    2.6612   -1.8549    2.2269 C   0  0  0  0  0  0  0  0  0  0  0  0
    1.3449   -2.1224    1.7631 C   0  0  0  0  0  0  0  0  0  0  0  0
    0.6534   -3.1756    2.4150 C   0  0  0  0  0  0  0  0  0  0  0  0
    1.2421   -3.9577    3.4123 C   0  0  0  0  0  0  0  0  0  0  0  0
    2.5443   -3.7024    3.8101 C   0  0  0  0  0  0  0  0  0  0  0  0
    3.2459   -2.6525    3.2251 C   0  0  0  0  0  0  0  0  0  0  0  0
    0.7627   -1.3102    0.7227 C   0  0  0  0  0  0  0  0  0  0  0  0
   -0.5139   -1.5918    0.0949 C   0  0  0  0  0  0  0  0  0  0  0  0
   -1.5163   -0.5913    0.0387 C   0  0  0  0  0  0  0  0  0  0  0  0
   -1.2577    0.6545    0.5670 O   0  0  0  0  0  0  0  0  0  0  0  0
   -2.8106   -0.7987   -0.4726 C   0  0  0  0  0  0  0  0  0  0  0  0
   -3.8238    0.2692   -0.5035 C   0  0  0  0  0  0  0  0  0  0  0  0
   -4.3004    0.7687   -1.7238 C   0  0  0  0  0  0  0  0  0  0  0  0
   -5.2485    1.7953   -1.7546 C   0  0  0  0  0  0  0  0  0  0  0  0
   -5.7425    2.3448   -0.5705 C   0  0  0  0  0  0  0  0  0  0  0  0
   -6.6590    3.3445   -0.7426 O   0  0  0  0  0  0  0  0  0  0  0  0
   -7.1991    3.9316    0.4349 C   0  0  0  0  0  0  0  0  0  0  0  0
   -5.2798    1.8551    0.6494 C   0  0  0  0  0  0  0  0  0  0  0  0
   -4.3300    0.8260    0.6804 C   0  0  0  0  0  0  0  0  0  0  0  0
   -3.1150   -2.0636   -0.9774 C   0  0  0  0  0  0  0  0  0  0  0  0
   -2.1613   -3.0851   -1.0120 C   0  0  0  0  0  0  0  0  0  0  0  0
   -0.8528   -2.8602   -0.5048 C   0  0  0  0  0  0  0  0  0  0  0  0
    0.0747   -3.9194   -0.6807 C   0  0  0  0  0  0  0  0  0  0  0  0
   -0.2801   -5.1447   -1.2514 C   0  0  0  0  0  0  0  0  0  0  0  0
   -1.5780   -5.3515   -1.6885 C   0  0  0  0  0  0  0  0  0  0  0  0
   -2.5098   -4.3242   -1.5761 C   0  0  0  0  0  0  0  0  0  0  0  0
   -1.5647    2.7209   -1.4345 H   0  0  0  0  0  0  0  0  0  0  0  0
    4.6364    0.0289   -1.2712 H   0  0  0  0  0  0  0  0  0  0  0  0
    5.9791    1.8741   -2.1252 H   0  0  0  0  0  0  0  0  0  0  0  0
    7.2133    5.3056   -2.4036 H   0  0  0  0  0  0  0  0  0  0  0  0
    7.5681    3.6278   -1.9748 H   0  0  0  0  0  0  0  0  0  0  0  0
    6.2351    4.0240   -3.1287 H   0  0  0  0  0  0  0  0  0  0  0  0
    4.1636    4.5272    0.7462 H   0  0  0  0  0  0  0  0  0  0  0  0
    2.8101    2.6634    1.6098 H   0  0  0  0  0  0  0  0  0  0  0  0
    4.3967   -0.5826    2.0596 H   0  0  0  0  0  0  0  0  0  0  0  0
   -0.3808   -3.3991    2.1585 H   0  0  0  0  0  0  0  0  0  0  0  0
    0.6749   -4.7600    3.8768 H   0  0  0  0  0  0  0  0  0  0  0  0
    3.0092   -4.3055    4.5852 H   0  0  0  0  0  0  0  0  0  0  0  0
    4.2593   -2.4514    3.5684 H   0  0  0  0  0  0  0  0  0  0  0  0
   -3.9242    0.3687   -2.6637 H   0  0  0  0  0  0  0  0  0  0  0  0
   -5.6034    2.1701   -2.7116 H   0  0  0  0  0  0  0  0  0  0  0  0
   -7.9123    4.7023    0.1271 H   0  0  0  0  0  0  0  0  0  0  0  0
   -6.4173    4.4186    1.0271 H   0  0  0  0  0  0  0  0  0  0  0  0
   -7.7443    3.1920    1.0305 H   0  0  0  0  0  0  0  0  0  0  0  0
   -5.6315    2.2482    1.5972 H   0  0  0  0  0  0  0  0  0  0  0  0
   -3.9809    0.4603    1.6449 H   0  0  0  0  0  0  0  0  0  0  0  0
   -4.1151   -2.2455   -1.3701 H   0  0  0  0  0  0  0  0  0  0  0  0
    1.1145   -3.7989   -0.3817 H   0  0  0  0  0  0  0  0  0  0  0  0
    0.4651   -5.9289   -1.3563 H   0  0  0  0  0  0  0  0  0  0  0  0
   -1.8618   -6.3012   -2.1336 H   0  0  0  0  0  0  0  0  0  0  0  0
   -3.5173   -4.4963   -1.9507 H   0  0  0  0  0  0  0  0  0  0  0  0
  2 25  1  0  0  0  0
  2  1  2  0  0  0  0
  3 42  1  0  0  0  0
  3  2  1  0  0  0  0
  4  2  1  0  0  0  0
  4  5  1  0  0  0  0
  5 22  2  0  0  0  0
  5  6  1  0  0  0  0
  6 15  2  0  0  0  0
  7  6  1  0  0  0  0
  7 14  2  0  0  0  0
  8  7  1  0  0  0  0
  9  8  2  0  0  0  0
  9 10  1  0  0  0  0
 10 13  2  0  0  0  0
 11 10  1  0  0  0  0
 12 46  1  0  0  0  0
 12 11  1  0  0  0  0
 13 48  1  0  0  0  0
 13 14  1  0  0  0  0
 14 49  1  0  0  0  0
 15 50  1  0  0  0  0
 15 16  1  0  0  0  0
 16 21  1  0  0  0  0
 17 16  2  0  0  0  0
 17 18  1  0  0  0  0
 18 19  2  0  0  0  0
 19 20  1  0  0  0  0
 19 52  1  0  0  0  0
 20 53  1  0  0  0  0
 21 54  1  0  0  0  0
 21 20  2  0  0  0  0
 22 17  1  0  0  0  0
 23 22  1  0  0  0  0
 24 23  1  0  0  0  0
 24 25  1  0  0  0  0
 26 24  2  0  0  0  0
 27 26  1  0  0  0  0
 27 34  2  0  0  0  0
 28 27  1  0  0  0  0
 29 28  2  0  0  0  0
 29 30  1  0  0  0  0
 30 33  2  0  0  0  0
 31 30  1  0  0  0  0
 31 32  1  0  0  0  0
 32 58  1  0  0  0  0
 32 59  1  0  0  0  0
 33 34  1  0  0  0  0
 33 60  1  0  0  0  0
 34 61  1  0  0  0  0
 35 26  1  0  0  0  0
 36 35  2  0  0  0  0
 36 37  1  0  0  0  0
 37 23  2  0  0  0  0
 38 37  1  0  0  0  0
 38 63  1  0  0  0  0
 39 38  2  0  0  0  0
 40 41  2  0  0  0  0
 40 39  1  0  0  0  0
 41 36  1  0  0  0  0
 43  8  1  0  0  0  0
 44  9  1  0  0  0  0
 45 12  1  0  0  0  0
 47 12  1  0  0  0  0
 51 18  1  0  0  0  0
 55 28  1  0  0  0  0
 56 29  1  0  0  0  0
 57 32  1  0  0  0  0
 62 35  1  0  0  0  0
 64 39  1  0  0  0  0
 65 40  1  0  0  0  0
 66 41  1  0  0  0  0
M  END
$$$$
