O=P1(O)OC2=C(C3=C(C4=CC(C=CC=C5)=C5C=C4)C=CC=C3)C=C6C(CCCC6)=C2C7=C(O1)C(C8=CC=CC=C8C9=CC=C(C=CC=C%10)C%10=C9)=CC%11=C7CCCC%11
 OpenBabel09032010383D

 98108  0  0  0  0  0  0  0  0999 V2000
   -1.8259   -2.7876   -1.5983 O   0  0  0  0  0  0  0  0  0  0  0  0
   -0.6301   -2.0672   -2.1395 P   0  0  0  0  0  0  0  0  0  0  0  0
   -0.0188   -2.8607   -3.4022 O   0  0  0  0  0  0  0  0  0  0  0  0
    0.6136   -1.9742   -1.1286 O   0  0  0  0  0  0  0  0  0  0  0  0
    1.6919   -1.1869   -1.4552 C   0  0  0  0  0  0  0  0  0  0  0  0
    2.9222   -1.8405   -1.6528 C   0  0  0  0  0  0  0  0  0  0  0  0
    3.0820   -3.3015   -1.4760 C   0  0  0  0  0  0  0  0  0  0  0  0
    2.9417   -3.9404   -0.2133 C   0  0  0  0  0  0  0  0  0  0  0  0
    2.6090   -3.1933    1.0156 C   0  0  0  0  0  0  0  0  0  0  0  0
    3.4832   -2.2267    1.5387 C   0  0  0  0  0  0  0  0  0  0  0  0
    3.1222   -1.4304    2.6378 C   0  0  0  0  0  0  0  0  0  0  0  0
    3.9778   -0.4323    3.1290 C   0  0  0  0  0  0  0  0  0  0  0  0
    3.5889    0.3739    4.1992 C   0  0  0  0  0  0  0  0  0  0  0  0
    2.3453    0.1881    4.7957 C   0  0  0  0  0  0  0  0  0  0  0  0
    1.4891   -0.8088    4.3285 C   0  0  0  0  0  0  0  0  0  0  0  0
    1.8632   -1.6238    3.2494 C   0  0  0  0  0  0  0  0  0  0  0  0
    1.0072   -2.6175    2.7576 C   0  0  0  0  0  0  0  0  0  0  0  0
    1.3763   -3.3911    1.6550 C   0  0  0  0  0  0  0  0  0  0  0  0
    3.1060   -5.3375   -0.1375 C   0  0  0  0  0  0  0  0  0  0  0  0
    3.4012   -6.0952   -1.2712 C   0  0  0  0  0  0  0  0  0  0  0  0
    3.5345   -5.4715   -2.5059 C   0  0  0  0  0  0  0  0  0  0  0  0
    3.3771   -4.0894   -2.6067 C   0  0  0  0  0  0  0  0  0  0  0  0
    4.0228   -1.0589   -2.0159 C   0  0  0  0  0  0  0  0  0  0  0  0
    3.9095    0.3272   -2.1895 C   0  0  0  0  0  0  0  0  0  0  0  0
    2.6644    0.9632   -1.9706 C   0  0  0  0  0  0  0  0  0  0  0  0
    2.5253    2.4492   -2.2803 C   0  0  0  0  0  0  0  0  0  0  0  0
    3.6349    3.0043   -3.1714 C   0  0  0  0  0  0  0  0  0  0  0  0
    4.9900    2.5899   -2.6235 C   0  0  0  0  0  0  0  0  0  0  0  0
    5.1292    1.0737   -2.6796 C   0  0  0  0  0  0  0  0  0  0  0  0
    1.5303    0.2156   -1.5159 C   0  0  0  0  0  0  0  0  0  0  0  0
    0.2772    0.8229   -1.1524 C   0  0  0  0  0  0  0  0  0  0  0  0
   -0.9203    0.4548   -1.8164 C   0  0  0  0  0  0  0  0  0  0  0  0
   -0.8798   -0.5855   -2.7191 O   0  0  0  0  0  0  0  0  0  0  0  0
   -2.1487    1.1224   -1.6439 C   0  0  0  0  0  0  0  0  0  0  0  0
   -3.3705    0.7554   -2.3996 C   0  0  0  0  0  0  0  0  0  0  0  0
   -3.3452    0.8383   -3.8083 C   0  0  0  0  0  0  0  0  0  0  0  0
   -4.4621    0.5184   -4.5809 C   0  0  0  0  0  0  0  0  0  0  0  0
   -5.6361    0.1112   -3.9622 C   0  0  0  0  0  0  0  0  0  0  0  0
   -5.6923    0.0271   -2.5717 C   0  0  0  0  0  0  0  0  0  0  0  0
   -4.5762    0.3445   -1.7694 C   0  0  0  0  0  0  0  0  0  0  0  0
   -4.7203    0.2307   -0.3060 C   0  0  0  0  0  0  0  0  0  0  0  0
   -4.0662   -0.7783    0.4099 C   0  0  0  0  0  0  0  0  0  0  0  0
   -4.1944   -0.8720    1.7982 C   0  0  0  0  0  0  0  0  0  0  0  0
   -4.9898    0.0391    2.5071 C   0  0  0  0  0  0  0  0  0  0  0  0
   -5.1281   -0.0407    3.9021 C   0  0  0  0  0  0  0  0  0  0  0  0
   -5.9271    0.8717    4.5928 C   0  0  0  0  0  0  0  0  0  0  0  0
   -6.5972    1.8744    3.8981 C   0  0  0  0  0  0  0  0  0  0  0  0
   -6.4691    1.9673    2.5112 C   0  0  0  0  0  0  0  0  0  0  0  0
   -5.6687    1.0569    1.8014 C   0  0  0  0  0  0  0  0  0  0  0  0
   -5.5269    1.1363    0.4050 C   0  0  0  0  0  0  0  0  0  0  0  0
   -2.1797    2.1791   -0.7289 C   0  0  0  0  0  0  0  0  0  0  0  0
   -1.0689    2.4990    0.0622 C   0  0  0  0  0  0  0  0  0  0  0  0
    0.1536    1.8147   -0.1319 C   0  0  0  0  0  0  0  0  0  0  0  0
    1.2519    1.9882    0.9117 C   0  0  0  0  0  0  0  0  0  0  0  0
    1.1968    3.3273    1.6413 C   0  0  0  0  0  0  0  0  0  0  0  0
   -0.1970    3.5550    2.2028 C   0  0  0  0  0  0  0  0  0  0  0  0
   -1.2182    3.6119    1.0737 C   0  0  0  0  0  0  0  0  0  0  0  0
   -0.0915   -3.8192   -3.2457 H   0  0  0  0  0  0  0  0  0  0  0  0
    4.4460   -2.0686    1.0563 H   0  0  0  0  0  0  0  0  0  0  0  0
    4.9550   -0.2710    2.6783 H   0  0  0  0  0  0  0  0  0  0  0  0
    4.2584    1.1473    4.5660 H   0  0  0  0  0  0  0  0  0  0  0  0
    2.0418    0.8172    5.6280 H   0  0  0  0  0  0  0  0  0  0  0  0
    0.5214   -0.9398    4.8071 H   0  0  0  0  0  0  0  0  0  0  0  0
    0.0338   -2.7831    3.2131 H   0  0  0  0  0  0  0  0  0  0  0  0
    0.6707   -4.1229    1.2667 H   0  0  0  0  0  0  0  0  0  0  0  0
    3.0079   -5.8427    0.8222 H   0  0  0  0  0  0  0  0  0  0  0  0
    3.5275   -7.1716   -1.1864 H   0  0  0  0  0  0  0  0  0  0  0  0
    3.7618   -6.0580   -3.3920 H   0  0  0  0  0  0  0  0  0  0  0  0
    3.4750   -3.6178   -3.5835 H   0  0  0  0  0  0  0  0  0  0  0  0
    4.9860   -1.5401   -2.1819 H   0  0  0  0  0  0  0  0  0  0  0  0
    2.5302    3.0163   -1.3448 H   0  0  0  0  0  0  0  0  0  0  0  0
    1.5699    2.6370   -2.7843 H   0  0  0  0  0  0  0  0  0  0  0  0
    3.5612    4.0968   -3.2121 H   0  0  0  0  0  0  0  0  0  0  0  0
    3.5168    2.6342   -4.1977 H   0  0  0  0  0  0  0  0  0  0  0  0
    5.0935    2.9386   -1.5882 H   0  0  0  0  0  0  0  0  0  0  0  0
    5.7950    3.0567   -3.2019 H   0  0  0  0  0  0  0  0  0  0  0  0
    5.3134    0.7710   -3.7184 H   0  0  0  0  0  0  0  0  0  0  0  0
    6.0052    0.7784   -2.0896 H   0  0  0  0  0  0  0  0  0  0  0  0
   -2.4358    1.1584   -4.3149 H   0  0  0  0  0  0  0  0  0  0  0  0
   -4.4099    0.5868   -5.6641 H   0  0  0  0  0  0  0  0  0  0  0  0
   -6.5083   -0.1444   -4.5576 H   0  0  0  0  0  0  0  0  0  0  0  0
   -6.6186   -0.3016   -2.1029 H   0  0  0  0  0  0  0  0  0  0  0  0
   -3.4492   -1.5054   -0.1131 H   0  0  0  0  0  0  0  0  0  0  0  0
   -3.6650   -1.6673    2.3180 H   0  0  0  0  0  0  0  0  0  0  0  0
   -4.6121   -0.8186    4.4602 H   0  0  0  0  0  0  0  0  0  0  0  0
   -6.0267    0.7973    5.6724 H   0  0  0  0  0  0  0  0  0  0  0  0
   -7.2213    2.5845    4.4343 H   0  0  0  0  0  0  0  0  0  0  0  0
   -7.0015    2.7571    1.9862 H   0  0  0  0  0  0  0  0  0  0  0  0
   -6.0431    1.9230   -0.1426 H   0  0  0  0  0  0  0  0  0  0  0  0
   -3.1039    2.7394   -0.5932 H   0  0  0  0  0  0  0  0  0  0  0  0
    1.1274    1.1791    1.6431 H   0  0  0  0  0  0  0  0  0  0  0  0
    2.2538    1.8739    0.4956 H   0  0  0  0  0  0  0  0  0  0  0  0
    1.9320    3.3331    2.4539 H   0  0  0  0  0  0  0  0  0  0  0  0
    1.4626    4.1421    0.9564 H   0  0  0  0  0  0  0  0  0  0  0  0
   -0.2277    4.4878    2.7768 H   0  0  0  0  0  0  0  0  0  0  0  0
   -0.4521    2.7431    2.8957 H   0  0  0  0  0  0  0  0  0  0  0  0
   -2.2229    3.5875    1.5133 H   0  0  0  0  0  0  0  0  0  0  0  0
   -1.1172    4.5654    0.5400 H   0  0  0  0  0  0  0  0  0  0  0  0
  2  1  2  0  0  0  0
  2  4  1  0  0  0  0
  3 58  1  0  0  0  0
  3  2  1  0  0  0  0
  5  4  1  0  0  0  0
  6  7  1  0  0  0  0
  6  5  2  0  0  0  0
  7  8  2  0  0  0  0
  8 19  1  0  0  0  0
  8  9  1  0  0  0  0
  9 10  2  0  0  0  0
  9 18  1  0  0  0  0
 10 11  1  0  0  0  0
 11 12  2  0  0  0  0
 11 16  1  0  0  0  0
 12 13  1  0  0  0  0
 13 61  1  0  0  0  0
 13 14  2  0  0  0  0
 14 62  1  0  0  0  0
 15 14  1  0  0  0  0
 15 63  1  0  0  0  0
 16 15  2  0  0  0  0
 17 64  1  0  0  0  0
 17 16  1  0  0  0  0
 18 17  2  0  0  0  0
 19 66  1  0  0  0  0
 20 67  1  0  0  0  0
 20 19  2  0  0  0  0
 21 20  1  0  0  0  0
 22 21  2  0  0  0  0
 22  7  1  0  0  0  0
 23  6  1  0  0  0  0
 24 23  2  0  0  0  0
 24 25  1  0  0  0  0
 25 30  2  0  0  0  0
 26 25  1  0  0  0  0
 26 71  1  0  0  0  0
 27 28  1  0  0  0  0
 27 26  1  0  0  0  0
 28 75  1  0  0  0  0
 29 28  1  0  0  0  0
 29 24  1  0  0  0  0
 29 78  1  0  0  0  0
 30  5  1  0  0  0  0
 30 31  1  0  0  0  0
 31 53  2  0  0  0  0
 32 34  2  0  0  0  0
 32 31  1  0  0  0  0
 33  2  1  0  0  0  0
 33 32  1  0  0  0  0
 34 51  1  0  0  0  0
 35 40  1  0  0  0  0
 35 34  1  0  0  0  0
 36 35  2  0  0  0  0
 37 38  2  0  0  0  0
 37 36  1  0  0  0  0
 38 39  1  0  0  0  0
 39 82  1  0  0  0  0
 39 40  2  0  0  0  0
 40 41  1  0  0  0  0
 41 50  2  0  0  0  0
 41 42  1  0  0  0  0
 42 43  2  0  0  0  0
 43 84  1  0  0  0  0
 43 44  1  0  0  0  0
 44 45  1  0  0  0  0
 45 85  1  0  0  0  0
 45 46  2  0  0  0  0
 46 86  1  0  0  0  0
 47 87  1  0  0  0  0
 47 46  1  0  0  0  0
 48 47  2  0  0  0  0
 49 44  2  0  0  0  0
 49 48  1  0  0  0  0
 50 49  1  0  0  0  0
 51 90  1  0  0  0  0
 51 52  2  0  0  0  0
 52 57  1  0  0  0  0
 53 52  1  0  0  0  0
 53 54  1  0  0  0  0
 54 55  1  0  0  0  0
 54 91  1  0  0  0  0
 55 56  1  0  0  0  0
 55 93  1  0  0  0  0
 56 95  1  0  0  0  0
 56 96  1  0  0  0  0
 57 97  1  0  0  0  0
 57 56  1  0  0  0  0
 59 10  1  0  0  0  0
 60 12  1  0  0  0  0
 65 18  1  0  0  0  0
 68 21  1  0  0  0  0
 69 22  1  0  0  0  0
 70 23  1  0  0  0  0
 72 26  1  0  0  0  0
 73 27  1  0  0  0  0
 74 27  1  0  0  0  0
 76 28  1  0  0  0  0
 77 29  1  0  0  0  0
 79 36  1  0  0  0  0
 80 37  1  0  0  0  0
 81 38  1  0  0  0  0
 83 42  1  0  0  0  0
 88 48  1  0  0  0  0
 89 50  1  0  0  0  0
 92 54  1  0  0  0  0
 94 55  1  0  0  0  0
 98 57  1  0  0  0  0
M  END
$$$$
