Standard file
     RDKit          3D

 26 27  0  0  0  0  0  0  0  0999 V2000
   -0.1440    0.6550    1.2772 C   0  0  0  0  0  0  0  0  0  0  0  0
    0.0000    0.0000    0.0000 N   0  0  0  0  0  0  0  0  0  0  0  0
   -0.4492    0.7704   -1.1345 C   0  0  0  0  0  0  0  0  0  0  0  0
    0.0761    0.1414   -2.4146 C   0  0  0  0  0  0  0  0  0  0  0  0
   -0.4137   -1.2961   -2.4613 C   0  0  0  0  0  0  0  0  0  0  0  0
    0.0000   -1.9894   -1.2657 N   0  0  0  0  0  0  0  0  0  0  0  0
   -0.0433   -1.3781   -0.0208 C   0  0  0  0  0  0  0  0  0  0  0  0
    0.0000   -1.9894    1.0996 N   0  0  0  0  0  0  0  0  0  0  0  0
    0.0804   -3.4226    1.1571 C   0  0  0  0  0  0  0  0  0  0  0  0
    0.5971   -4.0459   -0.1383 C   0  0  0  0  0  0  0  0  0  0  0  0
   -0.1787   -3.4255   -1.2916 C   0  0  0  0  0  0  0  0  0  0  0  0
    0.4341    1.5805    1.2705 H   0  0  0  0  0  0  0  0  0  0  0  0
   -1.1912    0.8919    1.4983 H   0  0  0  0  0  0  0  0  0  0  0  0
    0.2322   -0.0187    2.0406 H   0  0  0  0  0  0  0  0  0  0  0  0
   -0.0627    1.7882   -1.0209 H   0  0  0  0  0  0  0  0  0  0  0  0
   -1.5509    0.8324   -1.1694 H   0  0  0  0  0  0  0  0  0  0  0  0
   -0.2717    0.6926   -3.2883 H   0  0  0  0  0  0  0  0  0  0  0  0
    1.1666    0.1511   -2.3981 H   0  0  0  0  0  0  0  0  0  0  0  0
   -1.5120   -1.3154   -2.5734 H   0  0  0  0  0  0  0  0  0  0  0  0
    0.0162   -1.8208   -3.3222 H   0  0  0  0  0  0  0  0  0  0  0  0
   -0.9167   -3.8200    1.3934 H   0  0  0  0  0  0  0  0  0  0  0  0
    0.7376   -3.6761    1.9962 H   0  0  0  0  0  0  0  0  0  0  0  0
    1.6559   -3.8089   -0.2569 H   0  0  0  0  0  0  0  0  0  0  0  0
    0.4745   -5.1293   -0.1323 H   0  0  0  0  0  0  0  0  0  0  0  0
   -1.2452   -3.6949   -1.2155 H   0  0  0  0  0  0  0  0  0  0  0  0
    0.1936   -3.7952   -2.2537 H   0  0  0  0  0  0  0  0  0  0  0  0
  1  2  1  0
  2  3  1  0
  2  7  1  0
  3  4  1  0
  4 18  1  0
  4 17  1  0
  4  5  1  0
  5 19  1  0
  5 20  1  0
  6  5  1  0
  6 11  1  0
  7  6  1  0
  8  7  2  0
  8  9  1  0
  9 10  1  0
 10 23  1  0
 10 11  1  0
 10 24  1  0
 11 25  1  0
 11 26  1  0
 12  1  1  0
 13  1  1  0
 14  1  1  0
 15  3  1  0
 16  3  1  0
 21  9  1  0
 22  9  1  0
M  END
$$$$
