Standard file
     RDKit          3D

 33 32  0  0  0  0  0  0  0  0999 V2000
   -0.3932   -1.3289   -0.6594 C   0  0  0  0  0  0  0  0  0  0  0  0
    0.0000    0.0000    0.0000 C   0  0  0  0  0  0  0  0  0  0  0  0
   -1.0955    1.0512   -0.2294 C   0  0  0  0  0  0  0  0  0  0  0  0
    1.2984    0.5034   -0.6569 C   0  0  0  0  0  0  0  0  0  0  0  0
    0.3118   -0.0589    1.4050 N   0  0  0  0  0  0  0  0  0  0  0  0
    0.0000   -0.9126    2.2822 C   0  0  0  0  0  0  0  0  0  0  0  0
    0.7184   -0.8938    3.4728 N   0  0  0  0  0  0  0  0  0  0  0  0
    0.0000   -0.9126    4.7278 C   0  0  0  0  0  0  0  0  0  0  0  0
    1.8896   -0.0491    3.5129 C   0  0  0  0  0  0  0  0  0  0  0  0
   -0.9125   -1.9761    2.1509 N   0  0  0  0  0  0  0  0  0  0  0  0
   -0.5973   -3.2582    2.7315 C   0  0  0  0  0  0  0  0  0  0  0  0
   -2.3220   -1.6865    2.0874 C   0  0  0  0  0  0  0  0  0  0  0  0
   -0.3935   -1.2069   -1.7410 H   0  0  0  0  0  0  0  0  0  0  0  0
   -1.3805   -1.6544   -0.3505 H   0  0  0  0  0  0  0  0  0  0  0  0
    0.3260   -2.1013   -0.3954 H   0  0  0  0  0  0  0  0  0  0  0  0
   -1.2156    1.2393   -1.2936 H   0  0  0  0  0  0  0  0  0  0  0  0
   -0.8207    1.9797    0.2648 H   0  0  0  0  0  0  0  0  0  0  0  0
   -2.0503    0.7175    0.1699 H   0  0  0  0  0  0  0  0  0  0  0  0
    1.6173    1.4231   -0.1749 H   0  0  0  0  0  0  0  0  0  0  0  0
    2.0853   -0.2375   -0.5376 H   0  0  0  0  0  0  0  0  0  0  0  0
    1.1476    0.6892   -1.7174 H   0  0  0  0  0  0  0  0  0  0  0  0
   -0.9488   -1.4288    4.6252 H   0  0  0  0  0  0  0  0  0  0  0  0
   -0.2038    0.1069    5.0813 H   0  0  0  0  0  0  0  0  0  0  0  0
    0.5993   -1.4254    5.4840 H   0  0  0  0  0  0  0  0  0  0  0  0
    2.5288   -0.3793    4.3330 H   0  0  0  0  0  0  0  0  0  0  0  0
    2.4178   -0.1440    2.5686 H   0  0  0  0  0  0  0  0  0  0  0  0
    1.6348    1.0064    3.6586 H   0  0  0  0  0  0  0  0  0  0  0  0
   -1.0932   -3.4369    3.6954 H   0  0  0  0  0  0  0  0  0  0  0  0
    0.4777   -3.3355    2.8699 H   0  0  0  0  0  0  0  0  0  0  0  0
   -0.9227   -4.0415    2.0400 H   0  0  0  0  0  0  0  0  0  0  0  0
   -2.8231   -2.4015    1.4279 H   0  0  0  0  0  0  0  0  0  0  0  0
   -2.8001   -1.7531    3.0777 H   0  0  0  0  0  0  0  0  0  0  0  0
   -2.4721   -0.6805    1.7042 H   0  0  0  0  0  0  0  0  0  0  0  0
  1 13  1  0
  1  2  1  0
  2  3  1  0
  2  4  1  0
  3 16  1  0
  3 17  1  0
  4 21  1  0
  4 19  1  0
  5  2  1  0
  6  5  2  0
  7  6  1  0
  7  9  1  0
  8 23  1  0
  8  7  1  0
  9 26  1  0
  9 27  1  0
 10  6  1  0
 11 29  1  0
 11 10  1  0
 12 10  1  0
 12 33  1  0
 14  1  1  0
 15  1  1  0
 18  3  1  0
 20  4  1  0
 22  8  1  0
 24  8  1  0
 25  9  1  0
 28 11  1  0
 30 11  1  0
 31 12  1  0
 32 12  1  0
M  END
$$$$
