SC1=CC=C(OC)C=C1
 OpenBabel09032014133D

 17 17  0  0  0  0  0  0  0  0999 V2000
   -3.7402   -0.7552   -0.4217 S   0  0  0  0  0  0  0  0  0  0  0  0
   -2.0292   -0.2957   -0.2663 C   0  0  0  0  0  0  0  0  0  0  0  0
   -1.0808   -1.2585    0.0866 C   0  0  0  0  0  0  0  0  0  0  0  0
    0.2716   -0.9153    0.2065 C   0  0  0  0  0  0  0  0  0  0  0  0
    0.6853    0.3952   -0.0309 C   0  0  0  0  0  0  0  0  0  0  0  0
    1.9675    0.8627    0.0507 O   0  0  0  0  0  0  0  0  0  0  0  0
    2.9731   -0.0776    0.4069 C   0  0  0  0  0  0  0  0  0  0  0  0
   -0.2642    1.3548   -0.3902 C   0  0  0  0  0  0  0  0  0  0  0  0
   -1.6146    1.0142   -0.5104 C   0  0  0  0  0  0  0  0  0  0  0  0
   -4.2552    0.4102   -0.0041 H   0  0  0  0  0  0  0  0  0  0  0  0
   -1.3847   -2.2863    0.2728 H   0  0  0  0  0  0  0  0  0  0  0  0
    0.9715   -1.6960    0.4848 H   0  0  0  0  0  0  0  0  0  0  0  0
    3.9318    0.4496    0.4262 H   0  0  0  0  0  0  0  0  0  0  0  0
    2.7965   -0.4842    1.4081 H   0  0  0  0  0  0  0  0  0  0  0  0
    3.0478   -0.8770   -0.3378 H   0  0  0  0  0  0  0  0  0  0  0  0
    0.0516    2.3777   -0.5815 H   0  0  0  0  0  0  0  0  0  0  0  0
   -2.3278    1.7813   -0.7998 H   0  0  0  0  0  0  0  0  0  0  0  0
  1  2  1  0  0  0  0
  1 10  1  0  0  0  0
  2  3  2  0  0  0  0
  3  4  1  0  0  0  0
  3 11  1  0  0  0  0
  4 12  1  0  0  0  0
  5  6  1  0  0  0  0
  5  4  2  0  0  0  0
  6  7  1  0  0  0  0
  7 13  1  0  0  0  0
  7 14  1  0  0  0  0
  8  5  1  0  0  0  0
  9  8  2  0  0  0  0
  9  2  1  0  0  0  0
 15  7  1  0  0  0  0
 16  8  1  0  0  0  0
 17  9  1  0  0  0  0
M  END
$$$$
