SC1=CC=CC=C1
 OpenBabel09032014133D

 13 13  0  0  0  0  0  0  0  0999 V2000
    2.8034   -0.3132   -0.5508 S   0  0  0  0  0  0  0  0  0  0  0  0
    1.0574   -0.1579   -0.2451 C   0  0  0  0  0  0  0  0  0  0  0  0
    0.2401   -1.2903   -0.2971 C   0  0  0  0  0  0  0  0  0  0  0  0
   -1.1326   -1.1787   -0.0651 C   0  0  0  0  0  0  0  0  0  0  0  0
   -1.6936    0.0662    0.2155 C   0  0  0  0  0  0  0  0  0  0  0  0
   -0.8840    1.2001    0.2617 C   0  0  0  0  0  0  0  0  0  0  0  0
    0.4891    1.0893    0.0300 C   0  0  0  0  0  0  0  0  0  0  0  0
    3.1990    0.6048    0.3427 H   0  0  0  0  0  0  0  0  0  0  0  0
    0.6644   -2.2669   -0.5178 H   0  0  0  0  0  0  0  0  0  0  0  0
   -1.7629   -2.0633   -0.1053 H   0  0  0  0  0  0  0  0  0  0  0  0
   -2.7624    0.1529    0.3946 H   0  0  0  0  0  0  0  0  0  0  0  0
   -1.3219    2.1719    0.4751 H   0  0  0  0  0  0  0  0  0  0  0  0
    1.1040    1.9849    0.0616 H   0  0  0  0  0  0  0  0  0  0  0  0
  1  2  1  0  0  0  0
  1  8  1  0  0  0  0
  2  7  1  0  0  0  0
  3  2  2  0  0  0  0
  3  4  1  0  0  0  0
  4  5  2  0  0  0  0
  5  6  1  0  0  0  0
  5 11  1  0  0  0  0
  6 12  1  0  0  0  0
  7 13  1  0  0  0  0
  7  6  2  0  0  0  0
  9  3  1  0  0  0  0
 10  4  1  0  0  0  0
M  END
$$$$
