SC1=CC=CC=C1
 OpenBabel09032014133D

 13 13  0  0  0  0  0  0  0  0999 V2000
    2.7616    0.4187   -0.6770 S   0  0  0  0  0  0  0  0  0  0  0  0
    1.0386    0.1988   -0.2915 C   0  0  0  0  0  0  0  0  0  0  0  0
    0.5231   -1.0734   -0.0268 C   0  0  0  0  0  0  0  0  0  0  0  0
   -0.8326   -1.2349    0.2682 C   0  0  0  0  0  0  0  0  0  0  0  0
   -1.6780   -0.1267    0.2957 C   0  0  0  0  0  0  0  0  0  0  0  0
   -1.1700    1.1430    0.0258 C   0  0  0  0  0  0  0  0  0  0  0  0
    0.1853    1.3053   -0.2694 C   0  0  0  0  0  0  0  0  0  0  0  0
    3.2291   -0.5112    0.1680 H   0  0  0  0  0  0  0  0  0  0  0  0
    1.1661   -1.9494   -0.0522 H   0  0  0  0  0  0  0  0  0  0  0  0
   -1.2294   -2.2260    0.4732 H   0  0  0  0  0  0  0  0  0  0  0  0
   -2.7334   -0.2529    0.5240 H   0  0  0  0  0  0  0  0  0  0  0  0
   -1.8285    2.0078    0.0430 H   0  0  0  0  0  0  0  0  0  0  0  0
    0.5680    2.3009   -0.4809 H   0  0  0  0  0  0  0  0  0  0  0  0
  1  2  1  0  0  0  0
  1  8  1  0  0  0  0
  2  7  2  0  0  0  0
  2  3  1  0  0  0  0
  3  4  2  0  0  0  0
  4  5  1  0  0  0  0
  4 10  1  0  0  0  0
  5 11  1  0  0  0  0
  6 12  1  0  0  0  0
  6  5  2  0  0  0  0
  7  6  1  0  0  0  0
  9  3  1  0  0  0  0
 13  7  1  0  0  0  0
M  END
$$$$
