SC1=CC=CC=C1C
 OpenBabel09032014133D

 16 16  0  0  0  0  0  0  0  0999 V2000
   -2.0087    1.8260    0.1710 S   0  0  0  0  0  0  0  0  0  0  0  0
   -0.4766    0.9056    0.1680 C   0  0  0  0  0  0  0  0  0  0  0  0
    0.7078    1.6219    0.3899 C   0  0  0  0  0  0  0  0  0  0  0  0
    1.9422    0.9722    0.3952 C   0  0  0  0  0  0  0  0  0  0  0  0
    2.0028   -0.4004    0.1800 C   0  0  0  0  0  0  0  0  0  0  0  0
    0.8298   -1.1241   -0.0374 C   0  0  0  0  0  0  0  0  0  0  0  0
   -0.4222   -0.4852   -0.0439 C   0  0  0  0  0  0  0  0  0  0  0  0
   -1.6576   -1.3123   -0.2740 C   0  0  0  0  0  0  0  0  0  0  0  0
   -2.3913    1.4653   -1.0621 H   0  0  0  0  0  0  0  0  0  0  0  0
    0.6780    2.6958    0.5611 H   0  0  0  0  0  0  0  0  0  0  0  0
    2.8535    1.5385    0.5682 H   0  0  0  0  0  0  0  0  0  0  0  0
    2.9629   -0.9102    0.1841 H   0  0  0  0  0  0  0  0  0  0  0  0
    0.8996   -2.1979   -0.1994 H   0  0  0  0  0  0  0  0  0  0  0  0
   -2.1627   -0.9978   -1.1927 H   0  0  0  0  0  0  0  0  0  0  0  0
   -1.4145   -2.3750   -0.3825 H   0  0  0  0  0  0  0  0  0  0  0  0
   -2.3433   -1.2224    0.5745 H   0  0  0  0  0  0  0  0  0  0  0  0
  2  1  1  0  0  0  0
  2  3  2  0  0  0  0
  3  4  1  0  0  0  0
  3 10  1  0  0  0  0
  4 11  1  0  0  0  0
  5 12  1  0  0  0  0
  5  4  2  0  0  0  0
  6  5  1  0  0  0  0
  7  6  2  0  0  0  0
  7  2  1  0  0  0  0
  8  7  1  0  0  0  0
  8 16  1  0  0  0  0
  9  1  1  0  0  0  0
 13  6  1  0  0  0  0
 14  8  1  0  0  0  0
 15  8  1  0  0  0  0
M  END
$$$$
