SC1=CC=CC=C1
 OpenBabel09032014133D

 13 13  0  0  0  0  0  0  0  0999 V2000
    2.6247   -0.8763   -0.7768 S   0  0  0  0  0  0  0  0  0  0  0  0
    0.9788   -0.3715   -0.3273 C   0  0  0  0  0  0  0  0  0  0  0  0
    0.6840    0.9747   -0.0930 C   0  0  0  0  0  0  0  0  0  0  0  0
   -0.6133    1.3602    0.2528 C   0  0  0  0  0  0  0  0  0  0  0  0
   -1.6206    0.4026    0.3617 C   0  0  0  0  0  0  0  0  0  0  0  0
   -1.3331   -0.9403    0.1225 C   0  0  0  0  0  0  0  0  0  0  0  0
   -0.0363   -1.3264   -0.2235 C   0  0  0  0  0  0  0  0  0  0  0  0
    3.2736   -0.0050    0.0088 H   0  0  0  0  0  0  0  0  0  0  0  0
    1.4551    1.7356   -0.1816 H   0  0  0  0  0  0  0  0  0  0  0  0
   -0.8382    2.4082    0.4339 H   0  0  0  0  0  0  0  0  0  0  0  0
   -2.6304    0.7030    0.6295 H   0  0  0  0  0  0  0  0  0  0  0  0
   -2.1180   -1.6878    0.2032 H   0  0  0  0  0  0  0  0  0  0  0  0
    0.1738   -2.3769   -0.4103 H   0  0  0  0  0  0  0  0  0  0  0  0
  1  2  1  0  0  0  0
  1  8  1  0  0  0  0
  2  7  2  0  0  0  0
  2  3  1  0  0  0  0
  3  4  2  0  0  0  0
  4  5  1  0  0  0  0
  4 10  1  0  0  0  0
  5 11  1  0  0  0  0
  6 12  1  0  0  0  0
  6  5  2  0  0  0  0
  7  6  1  0  0  0  0
  9  3  1  0  0  0  0
 13  7  1  0  0  0  0
M  END
$$$$
