SC1=CC=C(OC)C=C1
 OpenBabel09032014133D

 17 17  0  0  0  0  0  0  0  0999 V2000
    3.7171    0.5176   -0.8076 S   0  0  0  0  0  0  0  0  0  0  0  0
    2.0286    0.2103   -0.3418 C   0  0  0  0  0  0  0  0  0  0  0  0
    1.7211   -0.6705    0.6959 C   0  0  0  0  0  0  0  0  0  0  0  0
    0.3880   -0.8938    1.0527 C   0  0  0  0  0  0  0  0  0  0  0  0
   -0.6495   -0.2400    0.3838 C   0  0  0  0  0  0  0  0  0  0  0  0
   -1.9033   -0.5495    0.8327 O   0  0  0  0  0  0  0  0  0  0  0  0
   -2.9944    0.0956    0.1880 C   0  0  0  0  0  0  0  0  0  0  0  0
   -0.3416    0.6454   -0.6488 C   0  0  0  0  0  0  0  0  0  0  0  0
    0.9933    0.8704   -1.0077 C   0  0  0  0  0  0  0  0  0  0  0  0
    4.1788   -0.7145   -0.5495 H   0  0  0  0  0  0  0  0  0  0  0  0
    2.5061   -1.1878    1.2409 H   0  0  0  0  0  0  0  0  0  0  0  0
    0.1559   -1.5820    1.8621 H   0  0  0  0  0  0  0  0  0  0  0  0
   -2.9451    1.1815    0.3203 H   0  0  0  0  0  0  0  0  0  0  0  0
   -3.0408   -0.1726   -0.8726 H   0  0  0  0  0  0  0  0  0  0  0  0
   -3.9168   -0.2556    0.6606 H   0  0  0  0  0  0  0  0  0  0  0  0
   -1.1119    1.1789   -1.1954 H   0  0  0  0  0  0  0  0  0  0  0  0
    1.2147    1.5666   -1.8137 H   0  0  0  0  0  0  0  0  0  0  0  0
  1 10  1  0  0  0  0
  1  2  1  0  0  0  0
  2  3  2  0  0  0  0
  3  4  1  0  0  0  0
  3 11  1  0  0  0  0
  4 12  1  0  0  0  0
  5  6  1  0  0  0  0
  5  4  2  0  0  0  0
  7 13  1  0  0  0  0
  7 15  1  0  0  0  0
  7  6  1  0  0  0  0
  8  5  1  0  0  0  0
  9  8  2  0  0  0  0
  9  2  1  0  0  0  0
 14  7  1  0  0  0  0
 16  8  1  0  0  0  0
 17  9  1  0  0  0  0
M  END
$$$$
