SC1=CC=CC=C1
 OpenBabel09032014133D

 13 13  0  0  0  0  0  0  0  0999 V2000
    2.7597    0.0363   -0.8020 S   0  0  0  0  0  0  0  0  0  0  0  0
    1.0386    0.0396   -0.3505 C   0  0  0  0  0  0  0  0  0  0  0  0
    0.2298    1.1225   -0.7057 C   0  0  0  0  0  0  0  0  0  0  0  0
   -1.1238    1.1325   -0.3618 C   0  0  0  0  0  0  0  0  0  0  0  0
   -1.6745    0.0577    0.3346 C   0  0  0  0  0  0  0  0  0  0  0  0
   -0.8737   -1.0282    0.6853 C   0  0  0  0  0  0  0  0  0  0  0  0
    0.4802   -1.0388    0.3419 C   0  0  0  0  0  0  0  0  0  0  0  0
    3.2097   -0.5647    0.3088 H   0  0  0  0  0  0  0  0  0  0  0  0
    0.6460    1.9659   -1.2515 H   0  0  0  0  0  0  0  0  0  0  0  0
   -1.7475    1.9783   -0.6394 H   0  0  0  0  0  0  0  0  0  0  0  0
   -2.7285    0.0652    0.6008 H   0  0  0  0  0  0  0  0  0  0  0  0
   -1.3039   -1.8689    1.2236 H   0  0  0  0  0  0  0  0  0  0  0  0
    1.0878   -1.8973    0.6159 H   0  0  0  0  0  0  0  0  0  0  0  0
  1  2  1  0  0  0  0
  1  8  1  0  0  0  0
  2  7  2  0  0  0  0
  3  4  2  0  0  0  0
  3  2  1  0  0  0  0
  4  5  1  0  0  0  0
  5 11  1  0  0  0  0
  5  6  2  0  0  0  0
  6 12  1  0  0  0  0
  7 13  1  0  0  0  0
  7  6  1  0  0  0  0
  9  3  1  0  0  0  0
 10  4  1  0  0  0  0
M  END
$$$$
