SC1=CC=CC=C1C
 OpenBabel09032014133D

 16 16  0  0  0  0  0  0  0  0999 V2000
    1.4935    2.2319    0.4317 S   0  0  0  0  0  0  0  0  0  0  0  0
    0.2290    0.9852    0.2290 C   0  0  0  0  0  0  0  0  0  0  0  0
   -1.1074    1.4036    0.2953 C   0  0  0  0  0  0  0  0  0  0  0  0
   -2.1484    0.4883    0.1396 C   0  0  0  0  0  0  0  0  0  0  0  0
   -1.8621   -0.8544   -0.0823 C   0  0  0  0  0  0  0  0  0  0  0  0
   -0.5357   -1.2828   -0.1456 C   0  0  0  0  0  0  0  0  0  0  0  0
    0.5251   -0.3738    0.0112 C   0  0  0  0  0  0  0  0  0  0  0  0
    1.9372   -0.8882   -0.0567 C   0  0  0  0  0  0  0  0  0  0  0  0
    2.1020    2.0064   -0.7413 H   0  0  0  0  0  0  0  0  0  0  0  0
   -1.3487    2.4500    0.4694 H   0  0  0  0  0  0  0  0  0  0  0  0
   -3.1804    0.8250    0.1929 H   0  0  0  0  0  0  0  0  0  0  0  0
   -2.6708   -1.5707   -0.2034 H   0  0  0  0  0  0  0  0  0  0  0  0
   -0.3340   -2.3385   -0.3158 H   0  0  0  0  0  0  0  0  0  0  0  0
    1.9623   -1.9745   -0.1963 H   0  0  0  0  0  0  0  0  0  0  0  0
    2.4679   -0.4383   -0.9017 H   0  0  0  0  0  0  0  0  0  0  0  0
    2.4706   -0.6693    0.8739 H   0  0  0  0  0  0  0  0  0  0  0  0
  2  3  1  0  0  0  0
  2  1  1  0  0  0  0
  3 10  1  0  0  0  0
  4 11  1  0  0  0  0
  4  3  2  0  0  0  0
  5  4  1  0  0  0  0
  6  5  2  0  0  0  0
  6  7  1  0  0  0  0
  7  2  2  0  0  0  0
  8  7  1  0  0  0  0
  8 16  1  0  0  0  0
  9  1  1  0  0  0  0
 12  5  1  0  0  0  0
 13  6  1  0  0  0  0
 14  8  1  0  0  0  0
 15  8  1  0  0  0  0
M  END
$$$$
