SC1CCCCC1
 OpenBabel09032014133D

 19 19  0  0  0  0  0  0  0  0999 V2000
    2.5184    0.6490   -0.0048 S   0  0  0  0  0  0  0  0  0  0  0  0
    1.0695    0.0811   -0.9726 C   0  0  0  0  0  0  0  0  0  0  0  0
    0.5717   -1.2835   -0.4809 C   0  0  0  0  0  0  0  0  0  0  0  0
   -0.2088   -1.2170    0.8322 C   0  0  0  0  0  0  0  0  0  0  0  0
   -1.3354   -0.1907    0.7679 C   0  0  0  0  0  0  0  0  0  0  0  0
   -0.8290    1.1862    0.3505 C   0  0  0  0  0  0  0  0  0  0  0  0
   -0.0507    1.1282   -0.9643 C   0  0  0  0  0  0  0  0  0  0  0  0
    1.9093    0.7305    1.1861 H   0  0  0  0  0  0  0  0  0  0  0  0
    1.4325   -0.0314   -2.0006 H   0  0  0  0  0  0  0  0  0  0  0  0
    1.4022   -1.9937   -0.3852 H   0  0  0  0  0  0  0  0  0  0  0  0
   -0.0940   -1.7001   -1.2489 H   0  0  0  0  0  0  0  0  0  0  0  0
   -0.6290   -2.2047    1.0548 H   0  0  0  0  0  0  0  0  0  0  0  0
    0.4650   -0.9725    1.6611 H   0  0  0  0  0  0  0  0  0  0  0  0
   -1.8277   -0.1220    1.7446 H   0  0  0  0  0  0  0  0  0  0  0  0
   -2.0950   -0.5301    0.0527 H   0  0  0  0  0  0  0  0  0  0  0  0
   -1.6801    1.8680    0.2384 H   0  0  0  0  0  0  0  0  0  0  0  0
   -0.1998    1.6034    1.1448 H   0  0  0  0  0  0  0  0  0  0  0  0
   -0.7588    0.8758   -1.7653 H   0  0  0  0  0  0  0  0  0  0  0  0
    0.3397    2.1233   -1.2105 H   0  0  0  0  0  0  0  0  0  0  0  0
  1  8  1  0  0  0  0
  2  7  1  0  0  0  0
  2  3  1  0  0  0  0
  2  1  1  0  0  0  0
  3 10  1  0  0  0  0
  3  4  1  0  0  0  0
  4 12  1  0  0  0  0
  4 13  1  0  0  0  0
  5  4  1  0  0  0  0
  5 14  1  0  0  0  0
  6  5  1  0  0  0  0
  6 17  1  0  0  0  0
  7  6  1  0  0  0  0
  9  2  1  0  0  0  0
 11  3  1  0  0  0  0
 15  5  1  0  0  0  0
 16  6  1  0  0  0  0
 18  7  1  0  0  0  0
 19  7  1  0  0  0  0
M  END
$$$$
