SC1=CC=C(OC)C=C1
 OpenBabel09032014133D

 17 17  0  0  0  0  0  0  0  0999 V2000
    3.7747    0.1613    0.6804 S   0  0  0  0  0  0  0  0  0  0  0  0
    2.0515    0.0621    0.2518 C   0  0  0  0  0  0  0  0  0  0  0  0
    1.0810    0.1480    1.2527 C   0  0  0  0  0  0  0  0  0  0  0  0
   -0.2801    0.0646    0.9336 C   0  0  0  0  0  0  0  0  0  0  0  0
   -0.6795   -0.1101   -0.3912 C   0  0  0  0  0  0  0  0  0  0  0  0
   -1.9678   -0.2066   -0.8383 O   0  0  0  0  0  0  0  0  0  0  0  0
   -2.9959   -0.1251    0.1408 C   0  0  0  0  0  0  0  0  0  0  0  0
    0.2934   -0.2024   -1.3895 C   0  0  0  0  0  0  0  0  0  0  0  0
    1.6525   -0.1195   -1.0729 C   0  0  0  0  0  0  0  0  0  0  0  0
    4.1809    0.7752   -0.4403 H   0  0  0  0  0  0  0  0  0  0  0  0
    1.3739    0.2815    2.2917 H   0  0  0  0  0  0  0  0  0  0  0  0
   -0.9977    0.1386    1.7437 H   0  0  0  0  0  0  0  0  0  0  0  0
   -3.9566   -0.2204   -0.3745 H   0  0  0  0  0  0  0  0  0  0  0  0
   -2.9214   -0.9467    0.8609 H   0  0  0  0  0  0  0  0  0  0  0  0
   -2.9840    0.8464    0.6459 H   0  0  0  0  0  0  0  0  0  0  0  0
   -0.0103   -0.3435   -2.4241 H   0  0  0  0  0  0  0  0  0  0  0  0
    2.3854   -0.2034   -1.8708 H   0  0  0  0  0  0  0  0  0  0  0  0
  2  1  1  0  0  0  0
  2  3  2  0  0  0  0
  3 11  1  0  0  0  0
  4  3  1  0  0  0  0
  4 12  1  0  0  0  0
  5  4  2  0  0  0  0
  6  5  1  0  0  0  0
  6  7  1  0  0  0  0
  7 15  1  0  0  0  0
  7 14  1  0  0  0  0
  8  9  2  0  0  0  0
  8  5  1  0  0  0  0
  9  2  1  0  0  0  0
 10  1  1  0  0  0  0
 13  7  1  0  0  0  0
 16  8  1  0  0  0  0
 17  9  1  0  0  0  0
M  END
$$$$
