SC1CCCCC1
 OpenBabel09032014133D

 19 19  0  0  0  0  0  0  0  0999 V2000
    2.6738    1.3655    0.0832 S   0  0  0  0  0  0  0  0  0  0  0  0
    1.1626    0.4670   -0.4057 C   0  0  0  0  0  0  0  0  0  0  0  0
    1.0351   -0.8264    0.4045 C   0  0  0  0  0  0  0  0  0  0  0  0
   -0.2545   -1.5697    0.0567 C   0  0  0  0  0  0  0  0  0  0  0  0
   -1.4817   -0.6786    0.2262 C   0  0  0  0  0  0  0  0  0  0  0  0
   -1.3515    0.6165   -0.5705 C   0  0  0  0  0  0  0  0  0  0  0  0
   -0.0645    1.3652   -0.2242 C   0  0  0  0  0  0  0  0  0  0  0  0
    2.3334    1.5626    1.3655 H   0  0  0  0  0  0  0  0  0  0  0  0
    1.2687    0.2155   -1.4677 H   0  0  0  0  0  0  0  0  0  0  0  0
    1.8893   -1.4864    0.2095 H   0  0  0  0  0  0  0  0  0  0  0  0
    1.0351   -0.6078    1.4806 H   0  0  0  0  0  0  0  0  0  0  0  0
   -0.2020   -1.9254   -0.9798 H   0  0  0  0  0  0  0  0  0  0  0  0
   -0.3519   -2.4560    0.6938 H   0  0  0  0  0  0  0  0  0  0  0  0
   -1.6155   -0.4409    1.2887 H   0  0  0  0  0  0  0  0  0  0  0  0
   -2.3782   -1.2206   -0.0952 H   0  0  0  0  0  0  0  0  0  0  0  0
   -2.2163    1.2596   -0.3721 H   0  0  0  0  0  0  0  0  0  0  0  0
   -1.3627    0.3878   -1.6434 H   0  0  0  0  0  0  0  0  0  0  0  0
    0.0129    2.2533   -0.8634 H   0  0  0  0  0  0  0  0  0  0  0  0
   -0.1323    1.7188    0.8132 H   0  0  0  0  0  0  0  0  0  0  0  0
  1  8  1  0  0  0  0
  2  7  1  0  0  0  0
  2  1  1  0  0  0  0
  2  3  1  0  0  0  0
  3 11  1  0  0  0  0
  4  5  1  0  0  0  0
  4  3  1  0  0  0  0
  4 13  1  0  0  0  0
  5 14  1  0  0  0  0
  6 16  1  0  0  0  0
  6  7  1  0  0  0  0
  6  5  1  0  0  0  0
  7 19  1  0  0  0  0
  9  2  1  0  0  0  0
 10  3  1  0  0  0  0
 12  4  1  0  0  0  0
 15  5  1  0  0  0  0
 17  6  1  0  0  0  0
 18  7  1  0  0  0  0
M  END
$$$$
