CCS
 OpenBabel09032014133D

  9  8  0  0  0  0  0  0  0  0999 V2000
   -0.9177    0.1967   -0.0055 C   0  0  0  0  0  0  0  0  0  0  0  0
    0.3644   -0.6079    0.0969 C   0  0  0  0  0  0  0  0  0  0  0  0
    1.7147    0.2212   -0.7863 S   0  0  0  0  0  0  0  0  0  0  0  0
   -1.7236   -0.3175    0.5286 H   0  0  0  0  0  0  0  0  0  0  0  0
   -1.2349    0.3168   -1.0470 H   0  0  0  0  0  0  0  0  0  0  0  0
   -0.8062    1.1903    0.4415 H   0  0  0  0  0  0  0  0  0  0  0  0
    0.6519   -0.7309    1.1454 H   0  0  0  0  0  0  0  0  0  0  0  0
    0.2212   -1.6026   -0.3357 H   0  0  0  0  0  0  0  0  0  0  0  0
    1.7302    1.3340   -0.0378 H   0  0  0  0  0  0  0  0  0  0  0  0
  1  2  1  0  0  0  0
  1  6  1  0  0  0  0
  1  4  1  0  0  0  0
  2  7  1  0  0  0  0
  3  9  1  0  0  0  0
  3  2  1  0  0  0  0
  5  1  1  0  0  0  0
  8  2  1  0  0  0  0
M  END
$$$$
