SC1=CC=C(OC)C=C1
 OpenBabel09032014133D

 17 17  0  0  0  0  0  0  0  0999 V2000
    3.6160   -1.2513    0.3364 S   0  0  0  0  0  0  0  0  0  0  0  0
    1.9807   -0.5866    0.1202 C   0  0  0  0  0  0  0  0  0  0  0  0
    0.8825   -1.2510    0.6712 C   0  0  0  0  0  0  0  0  0  0  0  0
   -0.4127   -0.7453    0.5044 C   0  0  0  0  0  0  0  0  0  0  0  0
   -0.6184    0.4285   -0.2201 C   0  0  0  0  0  0  0  0  0  0  0  0
   -1.8239    1.0282   -0.4574 O   0  0  0  0  0  0  0  0  0  0  0  0
   -2.9756    0.3920    0.0821 C   0  0  0  0  0  0  0  0  0  0  0  0
    0.4809    1.0875   -0.7758 C   0  0  0  0  0  0  0  0  0  0  0  0
    1.7745    0.5842   -0.6105 C   0  0  0  0  0  0  0  0  0  0  0  0
    4.2595   -0.0759    0.3809 H   0  0  0  0  0  0  0  0  0  0  0  0
    1.0235   -2.1694    1.2369 H   0  0  0  0  0  0  0  0  0  0  0  0
   -1.2344   -1.2942    0.9520 H   0  0  0  0  0  0  0  0  0  0  0  0
   -3.8488    0.9901   -0.1957 H   0  0  0  0  0  0  0  0  0  0  0  0
   -3.1090   -0.6088   -0.3419 H   0  0  0  0  0  0  0  0  0  0  0  0
   -2.9309    0.3561    1.1757 H   0  0  0  0  0  0  0  0  0  0  0  0
    0.3278    2.0008   -1.3461 H   0  0  0  0  0  0  0  0  0  0  0  0
    2.6082    1.1151   -1.0622 H   0  0  0  0  0  0  0  0  0  0  0  0
  1 10  1  0  0  0  0
  2  1  1  0  0  0  0
  2  3  2  0  0  0  0
  3 11  1  0  0  0  0
  4  3  1  0  0  0  0
  4 12  1  0  0  0  0
  5  4  2  0  0  0  0
  6  5  1  0  0  0  0
  6  7  1  0  0  0  0
  7 15  1  0  0  0  0
  8  9  2  0  0  0  0
  8  5  1  0  0  0  0
  9  2  1  0  0  0  0
 13  7  1  0  0  0  0
 14  7  1  0  0  0  0
 16  8  1  0  0  0  0
 17  9  1  0  0  0  0
M  END
$$$$
