SC1CCCCC1
 OpenBabel09032014133D

 19 19  0  0  0  0  0  0  0  0999 V2000
    2.9865   -0.0676    0.3116 S   0  0  0  0  0  0  0  0  0  0  0  0
    1.1811   -0.1671    0.5581 C   0  0  0  0  0  0  0  0  0  0  0  0
    0.5753   -1.1932   -0.4041 C   0  0  0  0  0  0  0  0  0  0  0  0
   -0.9453   -1.2534   -0.2597 C   0  0  0  0  0  0  0  0  0  0  0  0
   -1.5825    0.1223   -0.4331 C   0  0  0  0  0  0  0  0  0  0  0  0
   -0.9719    1.1494    0.5161 C   0  0  0  0  0  0  0  0  0  0  0  0
    0.5487    1.2155    0.3737 C   0  0  0  0  0  0  0  0  0  0  0  0
    2.9500    0.3441   -0.9644 H   0  0  0  0  0  0  0  0  0  0  0  0
    1.0163   -0.5019    1.5891 H   0  0  0  0  0  0  0  0  0  0  0  0
    0.9903   -2.1903   -0.2118 H   0  0  0  0  0  0  0  0  0  0  0  0
    0.8196   -0.9368   -1.4435 H   0  0  0  0  0  0  0  0  0  0  0  0
   -1.3583   -1.9469   -1.0010 H   0  0  0  0  0  0  0  0  0  0  0  0
   -1.2020   -1.6527    0.7293 H   0  0  0  0  0  0  0  0  0  0  0  0
   -2.6619    0.0535   -0.2569 H   0  0  0  0  0  0  0  0  0  0  0  0
   -1.4484    0.4582   -1.4687 H   0  0  0  0  0  0  0  0  0  0  0  0
   -1.4035    2.1369    0.3176 H   0  0  0  0  0  0  0  0  0  0  0  0
   -1.2301    0.8897    1.5502 H   0  0  0  0  0  0  0  0  0  0  0  0
    0.9448    1.9200    1.1154 H   0  0  0  0  0  0  0  0  0  0  0  0
    0.7912    1.6203   -0.6178 H   0  0  0  0  0  0  0  0  0  0  0  0
  1  2  1  0  0  0  0
  2  9  1  0  0  0  0
  3  4  1  0  0  0  0
  3 10  1  0  0  0  0
  3  2  1  0  0  0  0
  4 13  1  0  0  0  0
  5  4  1  0  0  0  0
  5 14  1  0  0  0  0
  5  6  1  0  0  0  0
  6 17  1  0  0  0  0
  7  6  1  0  0  0  0
  7  2  1  0  0  0  0
  7 18  1  0  0  0  0
  8  1  1  0  0  0  0
 11  3  1  0  0  0  0
 12  4  1  0  0  0  0
 15  5  1  0  0  0  0
 16  6  1  0  0  0  0
 19  7  1  0  0  0  0
M  END
$$$$
