CCS
 OpenBabel09032014133D

  9  8  0  0  0  0  0  0  0  0999 V2000
   -0.9003   -0.2621   -0.0413 C   0  0  0  0  0  0  0  0  0  0  0  0
    0.3180    0.6408    0.0068 C   0  0  0  0  0  0  0  0  0  0  0  0
    1.7905   -0.2358   -0.5884 S   0  0  0  0  0  0  0  0  0  0  0  0
   -1.7809    0.2813    0.3170 H   0  0  0  0  0  0  0  0  0  0  0  0
   -1.1116   -0.5983   -1.0621 H   0  0  0  0  0  0  0  0  0  0  0  0
   -0.7735   -1.1435    0.5966 H   0  0  0  0  0  0  0  0  0  0  0  0
    0.4989    0.9788    1.0315 H   0  0  0  0  0  0  0  0  0  0  0  0
    0.1583    1.5234   -0.6197 H   0  0  0  0  0  0  0  0  0  0  0  0
    1.8005   -1.1846    0.3595 H   0  0  0  0  0  0  0  0  0  0  0  0
  1  2  1  0  0  0  0
  1  4  1  0  0  0  0
  1  6  1  0  0  0  0
  2  7  1  0  0  0  0
  3  2  1  0  0  0  0
  3  9  1  0  0  0  0
  5  1  1  0  0  0  0
  8  2  1  0  0  0  0
M  END
$$$$
