SC1CCCCC1
 OpenBabel09032014133D

 19 19  0  0  0  0  0  0  0  0999 V2000
    2.8658   -0.7367   -0.5149 S   0  0  0  0  0  0  0  0  0  0  0  0
    1.0937   -0.3253   -0.6575 C   0  0  0  0  0  0  0  0  0  0  0  0
    0.8399    1.0926   -0.1372 C   0  0  0  0  0  0  0  0  0  0  0  0
   -0.6475    1.4410   -0.1902 C   0  0  0  0  0  0  0  0  0  0  0  0
   -1.4942    0.4113    0.5526 C   0  0  0  0  0  0  0  0  0  0  0  0
   -1.2338   -1.0038    0.0442 C   0  0  0  0  0  0  0  0  0  0  0  0
    0.2521   -1.3583    0.0977 C   0  0  0  0  0  0  0  0  0  0  0  0
    2.9470   -0.6282    0.8196 H   0  0  0  0  0  0  0  0  0  0  0  0
    0.8398   -0.3666   -1.7235 H   0  0  0  0  0  0  0  0  0  0  0  0
    1.3979    1.8250   -0.7335 H   0  0  0  0  0  0  0  0  0  0  0  0
    1.1866    1.1894    0.9002 H   0  0  0  0  0  0  0  0  0  0  0  0
   -0.9723    1.4944   -1.2366 H   0  0  0  0  0  0  0  0  0  0  0  0
   -0.8088    2.4337    0.2451 H   0  0  0  0  0  0  0  0  0  0  0  0
   -1.2696    0.4603    1.6252 H   0  0  0  0  0  0  0  0  0  0  0  0
   -2.5563    0.6550    0.4371 H   0  0  0  0  0  0  0  0  0  0  0  0
   -1.5928   -1.0925   -0.9887 H   0  0  0  0  0  0  0  0  0  0  0  0
   -1.8053   -1.7216    0.6435 H   0  0  0  0  0  0  0  0  0  0  0  0
    0.5626   -1.4124    1.1496 H   0  0  0  0  0  0  0  0  0  0  0  0
    0.3949   -2.3572   -0.3326 H   0  0  0  0  0  0  0  0  0  0  0  0
  1  8  1  0  0  0  0
  2  1  1  0  0  0  0
  2  3  1  0  0  0  0
  2  7  1  0  0  0  0
  3 11  1  0  0  0  0
  4  3  1  0  0  0  0
  4 13  1  0  0  0  0
  4  5  1  0  0  0  0
  5 14  1  0  0  0  0
  6  7  1  0  0  0  0
  6  5  1  0  0  0  0
  6 17  1  0  0  0  0
  7 18  1  0  0  0  0
  9  2  1  0  0  0  0
 10  3  1  0  0  0  0
 12  4  1  0  0  0  0
 15  5  1  0  0  0  0
 16  6  1  0  0  0  0
 19  7  1  0  0  0  0
M  END
$$$$
