SC1=CC=C(OC)C=C1
 OpenBabel09032014133D

 17 17  0  0  0  0  0  0  0  0999 V2000
   -3.7109   -0.6739   -0.6987 S   0  0  0  0  0  0  0  0  0  0  0  0
   -2.0227   -0.3316   -0.2566 C   0  0  0  0  0  0  0  0  0  0  0  0
   -1.7037    0.2010    0.9931 C   0  0  0  0  0  0  0  0  0  0  0  0
   -0.3701    0.4566    1.3254 C   0  0  0  0  0  0  0  0  0  0  0  0
    0.6571    0.1806    0.4199 C   0  0  0  0  0  0  0  0  0  0  0  0
    1.9126    0.4783    0.8719 O   0  0  0  0  0  0  0  0  0  0  0  0
    2.9944    0.2092   -0.0110 C   0  0  0  0  0  0  0  0  0  0  0  0
    0.3386   -0.3580   -0.8265 C   0  0  0  0  0  0  0  0  0  0  0  0
   -0.9968   -0.6147   -1.1612 C   0  0  0  0  0  0  0  0  0  0  0  0
   -4.2607    0.3461   -0.0240 H   0  0  0  0  0  0  0  0  0  0  0  0
   -2.4794    0.4186    1.7224 H   0  0  0  0  0  0  0  0  0  0  0  0
   -0.1290    0.8722    2.3010 H   0  0  0  0  0  0  0  0  0  0  0  0
    3.9198    0.4986    0.4963 H   0  0  0  0  0  0  0  0  0  0  0  0
    2.9154    0.8062   -0.9256 H   0  0  0  0  0  0  0  0  0  0  0  0
    3.0606   -0.8596   -0.2401 H   0  0  0  0  0  0  0  0  0  0  0  0
    1.1011   -0.5920   -1.5618 H   0  0  0  0  0  0  0  0  0  0  0  0
   -1.2262   -1.0376   -2.1369 H   0  0  0  0  0  0  0  0  0  0  0  0
  1  2  1  0  0  0  0
  1 10  1  0  0  0  0
  2  3  2  0  0  0  0
  3  4  1  0  0  0  0
  3 11  1  0  0  0  0
  4 12  1  0  0  0  0
  5  6  1  0  0  0  0
  5  4  2  0  0  0  0
  7 13  1  0  0  0  0
  7  6  1  0  0  0  0
  8  5  1  0  0  0  0
  9  8  2  0  0  0  0
  9  2  1  0  0  0  0
 14  7  1  0  0  0  0
 15  7  1  0  0  0  0
 16  8  1  0  0  0  0
 17  9  1  0  0  0  0
M  END
$$$$
