SC1CCCCC1
 OpenBabel09032014133D

 19 19  0  0  0  0  0  0  0  0999 V2000
    1.9692   -1.3611   -1.0164 S   0  0  0  0  0  0  0  0  0  0  0  0
    1.1954   -0.6556    0.4875 C   0  0  0  0  0  0  0  0  0  0  0  0
    1.1269    0.8746    0.4130 C   0  0  0  0  0  0  0  0  0  0  0  0
    0.0296    1.3969   -0.5149 C   0  0  0  0  0  0  0  0  0  0  0  0
   -1.3274    0.7829   -0.1859 C   0  0  0  0  0  0  0  0  0  0  0  0
   -1.2780   -0.7416   -0.1844 C   0  0  0  0  0  0  0  0  0  0  0  0
   -0.1853   -1.2715    0.7445 C   0  0  0  0  0  0  0  0  0  0  0  0
    1.0528   -0.9369   -1.8973 H   0  0  0  0  0  0  0  0  0  0  0  0
    1.8593   -0.9338    1.3140 H   0  0  0  0  0  0  0  0  0  0  0  0
    0.9253    1.2561    1.4231 H   0  0  0  0  0  0  0  0  0  0  0  0
    2.0956    1.2974    0.1195 H   0  0  0  0  0  0  0  0  0  0  0  0
    0.2854    1.1865   -1.5595 H   0  0  0  0  0  0  0  0  0  0  0  0
   -0.0332    2.4876   -0.4243 H   0  0  0  0  0  0  0  0  0  0  0  0
   -2.0733    1.1269   -0.9113 H   0  0  0  0  0  0  0  0  0  0  0  0
   -1.6561    1.1361    0.7994 H   0  0  0  0  0  0  0  0  0  0  0  0
   -2.2492   -1.1366    0.1356 H   0  0  0  0  0  0  0  0  0  0  0  0
   -1.1162   -1.1057   -1.2054 H   0  0  0  0  0  0  0  0  0  0  0  0
   -0.4763   -1.0361    1.7773 H   0  0  0  0  0  0  0  0  0  0  0  0
   -0.1445   -2.3661    0.6855 H   0  0  0  0  0  0  0  0  0  0  0  0
  1  2  1  0  0  0  0
  2  7  1  0  0  0  0
  2  9  1  0  0  0  0
  3  2  1  0  0  0  0
  3 10  1  0  0  0  0
  4 13  1  0  0  0  0
  4  5  1  0  0  0  0
  4  3  1  0  0  0  0
  5  6  1  0  0  0  0
  5 15  1  0  0  0  0
  6 16  1  0  0  0  0
  6  7  1  0  0  0  0
  7 18  1  0  0  0  0
  8  1  1  0  0  0  0
 11  3  1  0  0  0  0
 12  4  1  0  0  0  0
 14  5  1  0  0  0  0
 17  6  1  0  0  0  0
 19  7  1  0  0  0  0
M  END
$$$$
