SC1CCCCC1
 OpenBabel09032014133D

 19 19  0  0  0  0  0  0  0  0999 V2000
    2.9819   -0.1807    0.3108 S   0  0  0  0  0  0  0  0  0  0  0  0
    1.1735   -0.2402    0.5475 C   0  0  0  0  0  0  0  0  0  0  0  0
    0.5396   -1.1813   -0.4812 C   0  0  0  0  0  0  0  0  0  0  0  0
   -0.9826   -1.2036   -0.3433 C   0  0  0  0  0  0  0  0  0  0  0  0
   -1.5765    0.1997   -0.4263 C   0  0  0  0  0  0  0  0  0  0  0  0
   -0.9377    1.1425    0.5895 C   0  0  0  0  0  0  0  0  0  0  0  0
    0.5847    1.1706    0.4539 C   0  0  0  0  0  0  0  0  0  0  0  0
    2.9626    0.3151   -0.9354 H   0  0  0  0  0  0  0  0  0  0  0  0
    0.9948   -0.6369    1.5540 H   0  0  0  0  0  0  0  0  0  0  0  0
    0.9228   -2.2013   -0.3545 H   0  0  0  0  0  0  0  0  0  0  0  0
    0.7952   -0.8646   -1.5010 H   0  0  0  0  0  0  0  0  0  0  0  0
   -1.2550   -1.6590    0.6169 H   0  0  0  0  0  0  0  0  0  0  0  0
   -1.4143   -1.8335   -1.1293 H   0  0  0  0  0  0  0  0  0  0  0  0
   -1.4284    0.5988   -1.4374 H   0  0  0  0  0  0  0  0  0  0  0  0
   -2.6581    0.1530   -0.2566 H   0  0  0  0  0  0  0  0  0  0  0  0
   -1.2074    0.8233    1.6038 H   0  0  0  0  0  0  0  0  0  0  0  0
   -1.3379    2.1539    0.4560 H   0  0  0  0  0  0  0  0  0  0  0  0
    0.8431    1.6321   -0.5084 H   0  0  0  0  0  0  0  0  0  0  0  0
    0.9998    1.8120    1.2411 H   0  0  0  0  0  0  0  0  0  0  0  0
  1  2  1  0  0  0  0
  2  9  1  0  0  0  0
  3 10  1  0  0  0  0
  3  4  1  0  0  0  0
  3  2  1  0  0  0  0
  4 12  1  0  0  0  0
  5  4  1  0  0  0  0
  5 15  1  0  0  0  0
  5  6  1  0  0  0  0
  6 16  1  0  0  0  0
  7  2  1  0  0  0  0
  7  6  1  0  0  0  0
  7 19  1  0  0  0  0
  8  1  1  0  0  0  0
 11  3  1  0  0  0  0
 13  4  1  0  0  0  0
 14  5  1  0  0  0  0
 17  6  1  0  0  0  0
 18  7  1  0  0  0  0
M  END
$$$$
