SC1=CC=CC=C1C
 OpenBabel09032014133D

 16 16  0  0  0  0  0  0  0  0999 V2000
   -1.4466   -2.1638   -0.7897 S   0  0  0  0  0  0  0  0  0  0  0  0
   -0.2081   -0.9662   -0.3140 C   0  0  0  0  0  0  0  0  0  0  0  0
    1.1108   -1.4208   -0.1759 C   0  0  0  0  0  0  0  0  0  0  0  0
    2.1300   -0.5453    0.1989 C   0  0  0  0  0  0  0  0  0  0  0  0
    1.8392    0.7937    0.4375 C   0  0  0  0  0  0  0  0  0  0  0  0
    0.5308    1.2580    0.2986 C   0  0  0  0  0  0  0  0  0  0  0  0
   -0.5074    0.3895   -0.0803 C   0  0  0  0  0  0  0  0  0  0  0  0
   -1.8992    0.9421   -0.2248 C   0  0  0  0  0  0  0  0  0  0  0  0
   -2.2400   -1.9751    0.2743 H   0  0  0  0  0  0  0  0  0  0  0  0
    1.3556   -2.4647   -0.3599 H   0  0  0  0  0  0  0  0  0  0  0  0
    3.1485   -0.9097    0.3029 H   0  0  0  0  0  0  0  0  0  0  0  0
    2.6310    1.4791    0.7292 H   0  0  0  0  0  0  0  0  0  0  0  0
    0.3261    2.3103    0.4860 H   0  0  0  0  0  0  0  0  0  0  0  0
   -2.5749    0.4694    0.4950 H   0  0  0  0  0  0  0  0  0  0  0  0
   -1.9241    2.0209   -0.0363 H   0  0  0  0  0  0  0  0  0  0  0  0
   -2.2718    0.7827   -1.2417 H   0  0  0  0  0  0  0  0  0  0  0  0
  1  2  1  0  0  0  0
  1  9  1  0  0  0  0
  2  3  2  0  0  0  0
  2  7  1  0  0  0  0
  3  4  1  0  0  0  0
  4 11  1  0  0  0  0
  4  5  2  0  0  0  0
  5 12  1  0  0  0  0
  6  5  1  0  0  0  0
  6 13  1  0  0  0  0
  7  6  2  0  0  0  0
  8  7  1  0  0  0  0
  8 15  1  0  0  0  0
  8 14  1  0  0  0  0
 10  3  1  0  0  0  0
 16  8  1  0  0  0  0
M  END
$$$$
