SC1CCCCC1
 OpenBabel09032014133D

 19 19  0  0  0  0  0  0  0  0999 V2000
    2.5445   -0.1947   -0.5008 S   0  0  0  0  0  0  0  0  0  0  0  0
    1.2327    0.0305    0.7588 C   0  0  0  0  0  0  0  0  0  0  0  0
    0.4417    1.3213    0.5144 C   0  0  0  0  0  0  0  0  0  0  0  0
   -0.5517    1.2240   -0.6438 C   0  0  0  0  0  0  0  0  0  0  0  0
   -1.4692    0.0140   -0.5006 C   0  0  0  0  0  0  0  0  0  0  0  0
   -0.6820   -1.2815   -0.3316 C   0  0  0  0  0  0  0  0  0  0  0  0
    0.3110   -1.1932    0.8277 C   0  0  0  0  0  0  0  0  0  0  0  0
    1.7428   -0.2863   -1.5706 H   0  0  0  0  0  0  0  0  0  0  0  0
    1.7604    0.1222    1.7150 H   0  0  0  0  0  0  0  0  0  0  0  0
   -0.1247    1.5516    1.4269 H   0  0  0  0  0  0  0  0  0  0  0  0
    1.1163    2.1716    0.3563 H   0  0  0  0  0  0  0  0  0  0  0  0
   -0.0161    1.1690   -1.5983 H   0  0  0  0  0  0  0  0  0  0  0  0
   -1.1572    2.1372   -0.6800 H   0  0  0  0  0  0  0  0  0  0  0  0
   -2.1243    0.1563    0.3679 H   0  0  0  0  0  0  0  0  0  0  0  0
   -2.1195   -0.0617   -1.3794 H   0  0  0  0  0  0  0  0  0  0  0  0
   -0.1557   -1.5167   -1.2637 H   0  0  0  0  0  0  0  0  0  0  0  0
   -1.3779   -2.1089   -0.1509 H   0  0  0  0  0  0  0  0  0  0  0  0
   -0.2643   -1.1340    1.7616 H   0  0  0  0  0  0  0  0  0  0  0  0
    0.8931   -2.1207    0.8912 H   0  0  0  0  0  0  0  0  0  0  0  0
  1  2  1  0  0  0  0
  2  7  1  0  0  0  0
  2  9  1  0  0  0  0
  3  2  1  0  0  0  0
  3 10  1  0  0  0  0
  4  5  1  0  0  0  0
  4  3  1  0  0  0  0
  5  6  1  0  0  0  0
  5 14  1  0  0  0  0
  6 17  1  0  0  0  0
  6  7  1  0  0  0  0
  7 19  1  0  0  0  0
  7 18  1  0  0  0  0
  8  1  1  0  0  0  0
 11  3  1  0  0  0  0
 12  4  1  0  0  0  0
 13  4  1  0  0  0  0
 15  5  1  0  0  0  0
 16  6  1  0  0  0  0
M  END
$$$$
