SC1CCCCC1
 OpenBabel09032014133D

 19 19  0  0  0  0  0  0  0  0999 V2000
    2.5502   -0.1356   -0.4913 S   0  0  0  0  0  0  0  0  0  0  0  0
    1.2266    0.3994    0.6576 C   0  0  0  0  0  0  0  0  0  0  0  0
    0.4234   -0.7987    1.1783 C   0  0  0  0  0  0  0  0  0  0  0  0
   -0.5601   -1.3707    0.1568 C   0  0  0  0  0  0  0  0  0  0  0  0
   -1.4655   -0.2885   -0.4226 C   0  0  0  0  0  0  0  0  0  0  0  0
   -0.6654    0.8707   -1.0082 C   0  0  0  0  0  0  0  0  0  0  0  0
    0.3177    1.4507    0.0091 C   0  0  0  0  0  0  0  0  0  0  0  0
    1.7576   -0.6630   -1.4343 H   0  0  0  0  0  0  0  0  0  0  0  0
    1.7460    0.8636    1.5037 H   0  0  0  0  0  0  0  0  0  0  0  0
    1.0898   -1.5919    1.5386 H   0  0  0  0  0  0  0  0  0  0  0  0
   -0.1524   -0.4683    2.0534 H   0  0  0  0  0  0  0  0  0  0  0  0
   -1.1752   -2.1405    0.6372 H   0  0  0  0  0  0  0  0  0  0  0  0
   -0.0167   -1.8691   -0.6539 H   0  0  0  0  0  0  0  0  0  0  0  0
   -2.1286    0.0898    0.3653 H   0  0  0  0  0  0  0  0  0  0  0  0
   -2.1082   -0.7214   -1.1974 H   0  0  0  0  0  0  0  0  0  0  0  0
   -0.1296    0.5334   -1.9027 H   0  0  0  0  0  0  0  0  0  0  0  0
   -1.3537    1.6580   -1.3371 H   0  0  0  0  0  0  0  0  0  0  0  0
   -0.2652    1.9342    0.8047 H   0  0  0  0  0  0  0  0  0  0  0  0
    0.9095    2.2479   -0.4572 H   0  0  0  0  0  0  0  0  0  0  0  0
  1  2  1  0  0  0  0
  2  3  1  0  0  0  0
  2  9  1  0  0  0  0
  3 10  1  0  0  0  0
  3 11  1  0  0  0  0
  4 12  1  0  0  0  0
  4  3  1  0  0  0  0
  5  4  1  0  0  0  0
  5 14  1  0  0  0  0
  6  5  1  0  0  0  0
  6  7  1  0  0  0  0
  7  2  1  0  0  0  0
  7 18  1  0  0  0  0
  8  1  1  0  0  0  0
 13  4  1  0  0  0  0
 15  5  1  0  0  0  0
 16  6  1  0  0  0  0
 17  6  1  0  0  0  0
 19  7  1  0  0  0  0
M  END
$$$$
