SC1=CC=C(OC)C=C1
 OpenBabel09032014133D

 17 17  0  0  0  0  0  0  0  0999 V2000
    3.7466    0.6913   -0.4715 S   0  0  0  0  0  0  0  0  0  0  0  0
    2.0311    0.2596   -0.2885 C   0  0  0  0  0  0  0  0  0  0  0  0
    1.5994   -1.0539   -0.4767 C   0  0  0  0  0  0  0  0  0  0  0  0
    0.2456   -1.3728   -0.3357 C   0  0  0  0  0  0  0  0  0  0  0  0
   -0.6902   -0.3877   -0.0111 C   0  0  0  0  0  0  0  0  0  0  0  0
   -1.9774   -0.8357    0.0960 O   0  0  0  0  0  0  0  0  0  0  0  0
   -2.9697    0.1307    0.4186 C   0  0  0  0  0  0  0  0  0  0  0  0
   -0.2594    0.9263    0.1702 C   0  0  0  0  0  0  0  0  0  0  0  0
    1.0964    1.2476    0.0294 C   0  0  0  0  0  0  0  0  0  0  0  0
    4.2499   -0.4622   -0.0091 H   0  0  0  0  0  0  0  0  0  0  0  0
    2.3016   -1.8410   -0.7381 H   0  0  0  0  0  0  0  0  0  0  0  0
   -0.0835   -2.3987   -0.4833 H   0  0  0  0  0  0  0  0  0  0  0  0
   -2.7825    0.5757    1.4014 H   0  0  0  0  0  0  0  0  0  0  0  0
   -3.0388    0.8998   -0.3578 H   0  0  0  0  0  0  0  0  0  0  0  0
   -3.9345   -0.3835    0.4645 H   0  0  0  0  0  0  0  0  0  0  0  0
   -0.9483    1.7262    0.4199 H   0  0  0  0  0  0  0  0  0  0  0  0
    1.4137    2.2783    0.1717 H   0  0  0  0  0  0  0  0  0  0  0  0
  1  2  1  0  0  0  0
  1 10  1  0  0  0  0
  2  9  2  0  0  0  0
  3  4  2  0  0  0  0
  3  2  1  0  0  0  0
  4  5  1  0  0  0  0
  5  6  1  0  0  0  0
  5  8  2  0  0  0  0
  6  7  1  0  0  0  0
  7 15  1  0  0  0  0
  7 13  1  0  0  0  0
  8 16  1  0  0  0  0
  9  8  1  0  0  0  0
  9 17  1  0  0  0  0
 11  3  1  0  0  0  0
 12  4  1  0  0  0  0
 14  7  1  0  0  0  0
M  END
$$$$
