SC1=CC=CC=C1C
 OpenBabel09032014133D

 16 16  0  0  0  0  0  0  0  0999 V2000
   -1.3902    2.2785    0.5237 S   0  0  0  0  0  0  0  0  0  0  0  0
   -0.1832    0.9863    0.2629 C   0  0  0  0  0  0  0  0  0  0  0  0
    1.1706    1.3453    0.3215 C   0  0  0  0  0  0  0  0  0  0  0  0
    2.1691    0.3921    0.1215 C   0  0  0  0  0  0  0  0  0  0  0  0
    1.8224   -0.9296   -0.1374 C   0  0  0  0  0  0  0  0  0  0  0  0
    0.4781   -1.2991   -0.1935 C   0  0  0  0  0  0  0  0  0  0  0  0
   -0.5404   -0.3514    0.0077 C   0  0  0  0  0  0  0  0  0  0  0  0
   -1.9741   -0.8030   -0.0542 C   0  0  0  0  0  0  0  0  0  0  0  0
   -2.0242    2.1162   -0.6463 H   0  0  0  0  0  0  0  0  0  0  0  0
    1.4590    2.3746    0.5242 H   0  0  0  0  0  0  0  0  0  0  0  0
    3.2152    0.6828    0.1692 H   0  0  0  0  0  0  0  0  0  0  0  0
    2.5978   -1.6753   -0.2931 H   0  0  0  0  0  0  0  0  0  0  0  0
    0.2289   -2.3394   -0.3932 H   0  0  0  0  0  0  0  0  0  0  0  0
   -2.0478   -1.8822   -0.2271 H   0  0  0  0  0  0  0  0  0  0  0  0
   -2.4968   -0.3045   -0.8767 H   0  0  0  0  0  0  0  0  0  0  0  0
   -2.4844   -0.5912    0.8908 H   0  0  0  0  0  0  0  0  0  0  0  0
  2  3  1  0  0  0  0
  2  1  1  0  0  0  0
  3 10  1  0  0  0  0
  4 11  1  0  0  0  0
  4  3  2  0  0  0  0
  5  4  1  0  0  0  0
  6  5  2  0  0  0  0
  6  7  1  0  0  0  0
  7  2  2  0  0  0  0
  8  7  1  0  0  0  0
  8 16  1  0  0  0  0
  9  1  1  0  0  0  0
 12  5  1  0  0  0  0
 13  6  1  0  0  0  0
 14  8  1  0  0  0  0
 15  8  1  0  0  0  0
M  END
$$$$
