SC1=CC=CC=C1
 OpenBabel09032014133D

 13 13  0  0  0  0  0  0  0  0999 V2000
    2.8670    0.2003    0.0270 S   0  0  0  0  0  0  0  0  0  0  0  0
    1.0896    0.1191    0.0421 C   0  0  0  0  0  0  0  0  0  0  0  0
    0.4312   -1.1137    0.0155 C   0  0  0  0  0  0  0  0  0  0  0  0
   -0.9646   -1.1656    0.0345 C   0  0  0  0  0  0  0  0  0  0  0  0
   -1.7065    0.0137    0.0840 C   0  0  0  0  0  0  0  0  0  0  0  0
   -1.0543    1.2453    0.1174 C   0  0  0  0  0  0  0  0  0  0  0  0
    0.3412    1.2979    0.0987 C   0  0  0  0  0  0  0  0  0  0  0  0
    3.0618   -0.8314   -0.8067 H   0  0  0  0  0  0  0  0  0  0  0  0
    0.9937   -2.0432   -0.0147 H   0  0  0  0  0  0  0  0  0  0  0  0
   -1.4726   -2.1264    0.0139 H   0  0  0  0  0  0  0  0  0  0  0  0
   -2.7927   -0.0269    0.1001 H   0  0  0  0  0  0  0  0  0  0  0  0
   -1.6310    2.1657    0.1599 H   0  0  0  0  0  0  0  0  0  0  0  0
    0.8373    2.2651    0.1282 H   0  0  0  0  0  0  0  0  0  0  0  0
  1  2  1  0  0  0  0
  2  7  2  0  0  0  0
  3  4  2  0  0  0  0
  3  2  1  0  0  0  0
  4  5  1  0  0  0  0
  5 11  1  0  0  0  0
  5  6  2  0  0  0  0
  6 12  1  0  0  0  0
  7  6  1  0  0  0  0
  7 13  1  0  0  0  0
  8  1  1  0  0  0  0
  9  3  1  0  0  0  0
 10  4  1  0  0  0  0
M  END
$$$$
