CCS
 OpenBabel09032014133D

  9  8  0  0  0  0  0  0  0  0999 V2000
   -0.8789   -0.3292   -0.0003 C   0  0  0  0  0  0  0  0  0  0  0  0
    0.2752    0.6458    0.1377 C   0  0  0  0  0  0  0  0  0  0  0  0
    1.7001    0.0963   -0.8413 S   0  0  0  0  0  0  0  0  0  0  0  0
   -1.2115   -0.4140   -1.0404 H   0  0  0  0  0  0  0  0  0  0  0  0
   -0.6084   -1.3270    0.3614 H   0  0  0  0  0  0  0  0  0  0  0  0
   -1.7320    0.0173    0.5926 H   0  0  0  0  0  0  0  0  0  0  0  0
   -0.0263    1.6388   -0.2088 H   0  0  0  0  0  0  0  0  0  0  0  0
    0.5782    0.7284    1.1858 H   0  0  0  0  0  0  0  0  0  0  0  0
    1.9036   -1.0565   -0.1868 H   0  0  0  0  0  0  0  0  0  0  0  0
  1  2  1  0  0  0  0
  1  5  1  0  0  0  0
  1  6  1  0  0  0  0
  2  8  1  0  0  0  0
  3  9  1  0  0  0  0
  3  2  1  0  0  0  0
  4  1  1  0  0  0  0
  7  2  1  0  0  0  0
M  END
$$$$
