SC1=CC=CC=C1
 OpenBabel09032014133D

 13 13  0  0  0  0  0  0  0  0999 V2000
    2.7603   -0.6934   -0.4007 S   0  0  0  0  0  0  0  0  0  0  0  0
    1.0375   -0.3048   -0.1843 C   0  0  0  0  0  0  0  0  0  0  0  0
    0.6151    1.0220   -0.0606 C   0  0  0  0  0  0  0  0  0  0  0  0
   -0.7408    1.3157    0.1022 C   0  0  0  0  0  0  0  0  0  0  0  0
   -1.6790    0.2851    0.1380 C   0  0  0  0  0  0  0  0  0  0  0  0
   -1.2634   -1.0392    0.0084 C   0  0  0  0  0  0  0  0  0  0  0  0
    0.0920   -1.3335   -0.1547 C   0  0  0  0  0  0  0  0  0  0  0  0
    3.2372    0.2614    0.4106 H   0  0  0  0  0  0  0  0  0  0  0  0
    1.3318    1.8384   -0.0947 H   0  0  0  0  0  0  0  0  0  0  0  0
   -1.0649    2.3488    0.1978 H   0  0  0  0  0  0  0  0  0  0  0  0
   -2.7343    0.5140    0.2634 H   0  0  0  0  0  0  0  0  0  0  0  0
   -1.9939   -1.8438    0.0322 H   0  0  0  0  0  0  0  0  0  0  0  0
    0.4024   -2.3707   -0.2576 H   0  0  0  0  0  0  0  0  0  0  0  0
  1  2  1  0  0  0  0
  1  8  1  0  0  0  0
  2  7  2  0  0  0  0
  2  3  1  0  0  0  0
  3  4  2  0  0  0  0
  4  5  1  0  0  0  0
  4 10  1  0  0  0  0
  5 11  1  0  0  0  0
  6 12  1  0  0  0  0
  6  5  2  0  0  0  0
  7  6  1  0  0  0  0
  9  3  1  0  0  0  0
 13  7  1  0  0  0  0
M  END
$$$$
