CCS
 OpenBabel09032014133D

  9  8  0  0  0  0  0  0  0  0999 V2000
   -0.8364   -0.4236    0.2686 C   0  0  0  0  0  0  0  0  0  0  0  0
    0.1980    0.6861    0.2672 C   0  0  0  0  0  0  0  0  0  0  0  0
    1.6982    0.1642   -0.6091 S   0  0  0  0  0  0  0  0  0  0  0  0
   -0.4648   -1.3197    0.7772 H   0  0  0  0  0  0  0  0  0  0  0  0
   -1.1327   -0.6985   -0.7494 H   0  0  0  0  0  0  0  0  0  0  0  0
   -1.7366   -0.0929    0.7973 H   0  0  0  0  0  0  0  0  0  0  0  0
   -0.2043    1.5762   -0.2258 H   0  0  0  0  0  0  0  0  0  0  0  0
    0.4650    0.9567    1.2932 H   0  0  0  0  0  0  0  0  0  0  0  0
    2.0136   -0.8485    0.2117 H   0  0  0  0  0  0  0  0  0  0  0  0
  1  4  1  0  0  0  0
  1  6  1  0  0  0  0
  2  1  1  0  0  0  0
  2  8  1  0  0  0  0
  3  9  1  0  0  0  0
  3  2  1  0  0  0  0
  5  1  1  0  0  0  0
  7  2  1  0  0  0  0
M  END
$$$$
