SC1=CC=CC=C1
 OpenBabel09032014133D

 13 13  0  0  0  0  0  0  0  0999 V2000
    2.8328   -0.3790   -0.3030 S   0  0  0  0  0  0  0  0  0  0  0  0
    1.0709   -0.1855   -0.1484 C   0  0  0  0  0  0  0  0  0  0  0  0
    0.2436   -1.3115   -0.1768 C   0  0  0  0  0  0  0  0  0  0  0  0
   -1.1411   -1.1705   -0.0626 C   0  0  0  0  0  0  0  0  0  0  0  0
   -1.7041    0.0972    0.0760 C   0  0  0  0  0  0  0  0  0  0  0  0
   -0.8841    1.2244    0.0980 C   0  0  0  0  0  0  0  0  0  0  0  0
    0.5011    1.0841   -0.0159 C   0  0  0  0  0  0  0  0  0  0  0  0
    3.1711    0.6027    0.5452 H   0  0  0  0  0  0  0  0  0  0  0  0
    0.6696   -2.3059   -0.2873 H   0  0  0  0  0  0  0  0  0  0  0  0
   -1.7792   -2.0502   -0.0838 H   0  0  0  0  0  0  0  0  0  0  0  0
   -2.7822    0.2067    0.1634 H   0  0  0  0  0  0  0  0  0  0  0  0
   -1.3230    2.2135    0.2006 H   0  0  0  0  0  0  0  0  0  0  0  0
    1.1246    1.9743   -0.0054 H   0  0  0  0  0  0  0  0  0  0  0  0
  1  2  1  0  0  0  0
  1  8  1  0  0  0  0
  2  7  1  0  0  0  0
  3  2  2  0  0  0  0
  3  4  1  0  0  0  0
  4  5  2  0  0  0  0
  5  6  1  0  0  0  0
  5 11  1  0  0  0  0
  6 12  1  0  0  0  0
  7 13  1  0  0  0  0
  7  6  2  0  0  0  0
  9  3  1  0  0  0  0
 10  4  1  0  0  0  0
M  END
$$$$
