SC1=CC=CC=C1
 OpenBabel09032014133D

 13 13  0  0  0  0  0  0  0  0999 V2000
    2.7621   -0.5793   -0.5437 S   0  0  0  0  0  0  0  0  0  0  0  0
    1.0385   -0.2649   -0.2336 C   0  0  0  0  0  0  0  0  0  0  0  0
    0.1622   -1.3354   -0.0351 C   0  0  0  0  0  0  0  0  0  0  0  0
   -1.1937   -1.1001    0.2028 C   0  0  0  0  0  0  0  0  0  0  0  0
   -1.6792    0.2061    0.2386 C   0  0  0  0  0  0  0  0  0  0  0  0
   -0.8108    1.2774    0.0343 C   0  0  0  0  0  0  0  0  0  0  0  0
    0.5456    1.0428   -0.2034 C   0  0  0  0  0  0  0  0  0  0  0  0
    3.2361    0.4751    0.1353 H   0  0  0  0  0  0  0  0  0  0  0  0
    0.5273   -2.3593   -0.0634 H   0  0  0  0  0  0  0  0  0  0  0  0
   -1.8701   -1.9367    0.3580 H   0  0  0  0  0  0  0  0  0  0  0  0
   -2.7350    0.3889    0.4223 H   0  0  0  0  0  0  0  0  0  0  0  0
   -1.1899    2.2959    0.0568 H   0  0  0  0  0  0  0  0  0  0  0  0
    1.2068    1.8895   -0.3689 H   0  0  0  0  0  0  0  0  0  0  0  0
  1  2  1  0  0  0  0
  1  8  1  0  0  0  0
  2  7  2  0  0  0  0
  2  3  1  0  0  0  0
  3  4  2  0  0  0  0
  4  5  1  0  0  0  0
  4 10  1  0  0  0  0
  5 11  1  0  0  0  0
  6 12  1  0  0  0  0
  6  5  2  0  0  0  0
  7  6  1  0  0  0  0
  9  3  1  0  0  0  0
 13  7  1  0  0  0  0
M  END
$$$$
