SC1=CC=C(OC)C=C1
 OpenBabel09032014133D

 17 17  0  0  0  0  0  0  0  0999 V2000
    3.7677   -0.7294   -0.0970 S   0  0  0  0  0  0  0  0  0  0  0  0
    2.0486   -0.2758   -0.0563 C   0  0  0  0  0  0  0  0  0  0  0  0
    1.0670   -1.2674   -0.1214 C   0  0  0  0  0  0  0  0  0  0  0  0
   -0.2913   -0.9273   -0.0977 C   0  0  0  0  0  0  0  0  0  0  0  0
   -0.6770    0.4103   -0.0130 C   0  0  0  0  0  0  0  0  0  0  0  0
   -1.9612    0.8781    0.0188 O   0  0  0  0  0  0  0  0  0  0  0  0
   -3.0001   -0.0909   -0.0447 C   0  0  0  0  0  0  0  0  0  0  0  0
    0.3067    1.4006    0.0452 C   0  0  0  0  0  0  0  0  0  0  0  0
    1.6630    1.0630    0.0216 C   0  0  0  0  0  0  0  0  0  0  0  0
    4.2099    0.2563    0.6971 H   0  0  0  0  0  0  0  0  0  0  0  0
    1.3491   -2.3157   -0.1906 H   0  0  0  0  0  0  0  0  0  0  0  0
   -1.0177   -1.7313   -0.1483 H   0  0  0  0  0  0  0  0  0  0  0  0
   -2.9629   -0.6486   -0.9864 H   0  0  0  0  0  0  0  0  0  0  0  0
   -2.9638   -0.7656    0.8170 H   0  0  0  0  0  0  0  0  0  0  0  0
   -3.9558    0.4410   -0.0107 H   0  0  0  0  0  0  0  0  0  0  0  0
    0.0135    2.4460    0.1065 H   0  0  0  0  0  0  0  0  0  0  0  0
    2.4042    1.8567    0.0598 H   0  0  0  0  0  0  0  0  0  0  0  0
  1  2  1  0  0  0  0
  1 10  1  0  0  0  0
  2  9  2  0  0  0  0
  3  4  2  0  0  0  0
  3  2  1  0  0  0  0
  4  5  1  0  0  0  0
  5  6  1  0  0  0  0
  5  8  2  0  0  0  0
  7 15  1  0  0  0  0
  7  6  1  0  0  0  0
  7 14  1  0  0  0  0
  8 16  1  0  0  0  0
  9  8  1  0  0  0  0
  9 17  1  0  0  0  0
 11  3  1  0  0  0  0
 12  4  1  0  0  0  0
 13  7  1  0  0  0  0
M  END
$$$$
