CCS
 OpenBabel09032014133D

  9  8  0  0  0  0  0  0  0  0999 V2000
   -0.8938   -0.2357    0.1626 C   0  0  0  0  0  0  0  0  0  0  0  0
    0.3089    0.6080   -0.2160 C   0  0  0  0  0  0  0  0  0  0  0  0
    1.6871   -0.4429   -0.7517 S   0  0  0  0  0  0  0  0  0  0  0  0
   -0.6658   -0.9117    0.9936 H   0  0  0  0  0  0  0  0  0  0  0  0
   -1.2492   -0.8323   -0.6844 H   0  0  0  0  0  0  0  0  0  0  0  0
   -1.7179    0.4120    0.4799 H   0  0  0  0  0  0  0  0  0  0  0  0
    0.6348    1.2084    0.6386 H   0  0  0  0  0  0  0  0  0  0  0  0
    0.0499    1.2894   -1.0319 H   0  0  0  0  0  0  0  0  0  0  0  0
    1.8460   -1.0952    0.4094 H   0  0  0  0  0  0  0  0  0  0  0  0
  1  6  1  0  0  0  0
  1  4  1  0  0  0  0
  2  1  1  0  0  0  0
  2  7  1  0  0  0  0
  3  2  1  0  0  0  0
  3  9  1  0  0  0  0
  5  1  1  0  0  0  0
  8  2  1  0  0  0  0
M  END
$$$$
