SC1=CC=CC=C1
 OpenBabel09032014133D

 13 13  0  0  0  0  0  0  0  0999 V2000
    2.8215   -0.4762   -0.2695 S   0  0  0  0  0  0  0  0  0  0  0  0
    1.0658   -0.2180   -0.1405 C   0  0  0  0  0  0  0  0  0  0  0  0
    0.5490    1.0532    0.1264 C   0  0  0  0  0  0  0  0  0  0  0  0
   -0.8315    1.2454    0.2189 C   0  0  0  0  0  0  0  0  0  0  0  0
   -1.6997    0.1692    0.0411 C   0  0  0  0  0  0  0  0  0  0  0  0
   -1.1894   -1.0990   -0.2318 C   0  0  0  0  0  0  0  0  0  0  0  0
    0.1907   -1.2919   -0.3247 C   0  0  0  0  0  0  0  0  0  0  0  0
    3.1755    0.3816    0.6981 H   0  0  0  0  0  0  0  0  0  0  0  0
    1.2109    1.9050    0.2594 H   0  0  0  0  0  0  0  0  0  0  0  0
   -1.2291    2.2356    0.4264 H   0  0  0  0  0  0  0  0  0  0  0  0
   -2.7740    0.3193    0.1119 H   0  0  0  0  0  0  0  0  0  0  0  0
   -1.8650   -1.9385   -0.3745 H   0  0  0  0  0  0  0  0  0  0  0  0
    0.5754   -2.2857   -0.5411 H   0  0  0  0  0  0  0  0  0  0  0  0
  1  2  1  0  0  0  0
  1  8  1  0  0  0  0
  2  3  2  0  0  0  0
  3  4  1  0  0  0  0
  3  9  1  0  0  0  0
  4 10  1  0  0  0  0
  5 11  1  0  0  0  0
  5  4  2  0  0  0  0
  6  5  1  0  0  0  0
  7  6  2  0  0  0  0
  7  2  1  0  0  0  0
 12  6  1  0  0  0  0
 13  7  1  0  0  0  0
M  END
$$$$
