SC1=CC=C(OC)C=C1
 OpenBabel09032014133D

 17 17  0  0  0  0  0  0  0  0999 V2000
    3.6227    1.2659    0.1056 S   0  0  0  0  0  0  0  0  0  0  0  0
    1.9762    0.5942    0.1330 C   0  0  0  0  0  0  0  0  0  0  0  0
    0.9444    1.2575   -0.5351 C   0  0  0  0  0  0  0  0  0  0  0  0
   -0.3593    0.7463   -0.5178 C   0  0  0  0  0  0  0  0  0  0  0  0
   -0.6404   -0.4320    0.1732 C   0  0  0  0  0  0  0  0  0  0  0  0
   -1.8625   -1.0372    0.2703 O   0  0  0  0  0  0  0  0  0  0  0  0
   -2.9488   -0.4023   -0.3926 C   0  0  0  0  0  0  0  0  0  0  0  0
    0.3919   -1.0899    0.8462 C   0  0  0  0  0  0  0  0  0  0  0  0
    1.6938   -0.5811    0.8301 C   0  0  0  0  0  0  0  0  0  0  0  0
    4.2720    0.0930    0.1283 H   0  0  0  0  0  0  0  0  0  0  0  0
    1.1444    2.1793   -1.0770 H   0  0  0  0  0  0  0  0  0  0  0  0
   -1.1276    1.2945   -1.0526 H   0  0  0  0  0  0  0  0  0  0  0  0
   -3.8452   -1.0050   -0.2178 H   0  0  0  0  0  0  0  0  0  0  0  0
   -2.7812   -0.3606   -1.4739 H   0  0  0  0  0  0  0  0  0  0  0  0
   -3.1332    0.5957    0.0185 H   0  0  0  0  0  0  0  0  0  0  0  0
    0.1794   -2.0067    1.3912 H   0  0  0  0  0  0  0  0  0  0  0  0
    2.4735   -1.1114    1.3704 H   0  0  0  0  0  0  0  0  0  0  0  0
  1 10  1  0  0  0  0
  1  2  1  0  0  0  0
  2  9  2  0  0  0  0
  3  4  2  0  0  0  0
  3  2  1  0  0  0  0
  4  5  1  0  0  0  0
  5  6  1  0  0  0  0
  5  8  2  0  0  0  0
  7 13  1  0  0  0  0
  7 15  1  0  0  0  0
  7  6  1  0  0  0  0
  8 16  1  0  0  0  0
  9  8  1  0  0  0  0
  9 17  1  0  0  0  0
 11  3  1  0  0  0  0
 12  4  1  0  0  0  0
 14  7  1  0  0  0  0
M  END
$$$$
