SC1CCCCC1
 OpenBabel09032014133D

 19 19  0  0  0  0  0  0  0  0999 V2000
    2.5258   -0.4195   -0.4558 S   0  0  0  0  0  0  0  0  0  0  0  0
    1.2328    0.0415    0.7582 C   0  0  0  0  0  0  0  0  0  0  0  0
    0.5279    1.3421    0.3541 C   0  0  0  0  0  0  0  0  0  0  0  0
   -0.4708    1.1706   -0.7908 C   0  0  0  0  0  0  0  0  0  0  0  0
   -1.4656    0.0492   -0.5089 C   0  0  0  0  0  0  0  0  0  0  0  0
   -0.7649   -1.2649   -0.1792 C   0  0  0  0  0  0  0  0  0  0  0  0
    0.2328   -1.1020    0.9679 C   0  0  0  0  0  0  0  0  0  0  0  0
    1.7187   -0.5873   -1.5123 H   0  0  0  0  0  0  0  0  0  0  0  0
    1.7663    0.2136    1.7000 H   0  0  0  0  0  0  0  0  0  0  0  0
   -0.0212    1.7176    1.2282 H   0  0  0  0  0  0  0  0  0  0  0  0
    1.2568    2.1213    0.0993 H   0  0  0  0  0  0  0  0  0  0  0  0
    0.0592    0.9656   -1.7279 H   0  0  0  0  0  0  0  0  0  0  0  0
   -1.0151    2.1102   -0.9412 H   0  0  0  0  0  0  0  0  0  0  0  0
   -2.1203   -0.0896   -1.3767 H   0  0  0  0  0  0  0  0  0  0  0  0
   -2.1092    0.3379    0.3314 H   0  0  0  0  0  0  0  0  0  0  0  0
   -0.2561   -1.6450   -1.0723 H   0  0  0  0  0  0  0  0  0  0  0  0
   -1.5135   -2.0172    0.0952 H   0  0  0  0  0  0  0  0  0  0  0  0
   -0.3365   -0.8930    1.8837 H   0  0  0  0  0  0  0  0  0  0  0  0
    0.7529   -2.0510    1.1470 H   0  0  0  0  0  0  0  0  0  0  0  0
  1  2  1  0  0  0  0
  2  7  1  0  0  0  0
  2  9  1  0  0  0  0
  3  2  1  0  0  0  0
  3 10  1  0  0  0  0
  4  5  1  0  0  0  0
  4  3  1  0  0  0  0
  5  6  1  0  0  0  0
  5 15  1  0  0  0  0
  6 17  1  0  0  0  0
  6  7  1  0  0  0  0
  7 19  1  0  0  0  0
  7 18  1  0  0  0  0
  8  1  1  0  0  0  0
 11  3  1  0  0  0  0
 12  4  1  0  0  0  0
 13  4  1  0  0  0  0
 14  5  1  0  0  0  0
 16  6  1  0  0  0  0
M  END
$$$$
