SC1=CC=CC=C1C
 OpenBabel09032014133D

 16 16  0  0  0  0  0  0  0  0999 V2000
    1.2809    2.3477    0.4955 S   0  0  0  0  0  0  0  0  0  0  0  0
    0.1359    0.9985    0.2448 C   0  0  0  0  0  0  0  0  0  0  0  0
   -1.2331    1.2986    0.2767 C   0  0  0  0  0  0  0  0  0  0  0  0
   -2.1858    0.2984    0.0825 C   0  0  0  0  0  0  0  0  0  0  0  0
   -1.7776   -1.0117   -0.1438 C   0  0  0  0  0  0  0  0  0  0  0  0
   -0.4177   -1.3226   -0.1730 C   0  0  0  0  0  0  0  0  0  0  0  0
    0.5551   -0.3270    0.0227 C   0  0  0  0  0  0  0  0  0  0  0  0
    2.0080   -0.7160   -0.0094 C   0  0  0  0  0  0  0  0  0  0  0  0
    1.9391    2.1899   -0.6617 H   0  0  0  0  0  0  0  0  0  0  0  0
   -1.5694    2.3180    0.4536 H   0  0  0  0  0  0  0  0  0  0  0  0
   -3.2442    0.5435    0.1093 H   0  0  0  0  0  0  0  0  0  0  0  0
   -2.5172   -1.7939   -0.2948 H   0  0  0  0  0  0  0  0  0  0  0  0
   -0.1203   -2.3548   -0.3474 H   0  0  0  0  0  0  0  0  0  0  0  0
    2.5207   -0.2117   -0.8346 H   0  0  0  0  0  0  0  0  0  0  0  0
    2.4942   -0.4628    0.9381 H   0  0  0  0  0  0  0  0  0  0  0  0
    2.1315   -1.7943   -0.1586 H   0  0  0  0  0  0  0  0  0  0  0  0
  2  3  1  0  0  0  0
  2  1  1  0  0  0  0
  3 10  1  0  0  0  0
  4 11  1  0  0  0  0
  4  3  2  0  0  0  0
  5  4  1  0  0  0  0
  6  5  2  0  0  0  0
  6  7  1  0  0  0  0
  7  2  2  0  0  0  0
  8  7  1  0  0  0  0
  8 15  1  0  0  0  0
  9  1  1  0  0  0  0
 12  5  1  0  0  0  0
 13  6  1  0  0  0  0
 14  8  1  0  0  0  0
 16  8  1  0  0  0  0
M  END
$$$$
