SC1=CC=CC=C1
 OpenBabel09032014133D

 13 13  0  0  0  0  0  0  0  0999 V2000
    2.7589   -0.6886   -0.4177 S   0  0  0  0  0  0  0  0  0  0  0  0
    1.0368   -0.3051   -0.1877 C   0  0  0  0  0  0  0  0  0  0  0  0
    0.1050   -1.3398   -0.0681 C   0  0  0  0  0  0  0  0  0  0  0  0
   -1.2500   -1.0500    0.1064 C   0  0  0  0  0  0  0  0  0  0  0  0
   -1.6788    0.2754    0.1577 C   0  0  0  0  0  0  0  0  0  0  0  0
   -0.7545    1.3115    0.0320 C   0  0  0  0  0  0  0  0  0  0  0  0
    0.6009    1.0223   -0.1423 C   0  0  0  0  0  0  0  0  0  0  0  0
    3.2421    0.3232    0.3173 H   0  0  0  0  0  0  0  0  0  0  0  0
    0.4257   -2.3780   -0.1094 H   0  0  0  0  0  0  0  0  0  0  0  0
   -1.9698   -1.8591    0.2003 H   0  0  0  0  0  0  0  0  0  0  0  0
   -2.7338    0.5007    0.2920 H   0  0  0  0  0  0  0  0  0  0  0  0
   -1.0892    2.3451    0.0665 H   0  0  0  0  0  0  0  0  0  0  0  0
    1.3066    1.8424   -0.2470 H   0  0  0  0  0  0  0  0  0  0  0  0
  1  2  1  0  0  0  0
  1  8  1  0  0  0  0
  2  7  2  0  0  0  0
  2  3  1  0  0  0  0
  3  4  2  0  0  0  0
  4  5  1  0  0  0  0
  4 10  1  0  0  0  0
  5 11  1  0  0  0  0
  6 12  1  0  0  0  0
  6  5  2  0  0  0  0
  7  6  1  0  0  0  0
  9  3  1  0  0  0  0
 13  7  1  0  0  0  0
M  END
$$$$
