SC1=CC=C(OC)C=C1
 OpenBabel09032014133D

 17 17  0  0  0  0  0  0  0  0999 V2000
    3.6903   -0.5970   -0.8732 S   0  0  0  0  0  0  0  0  0  0  0  0
    2.0093   -0.2083   -0.4420 C   0  0  0  0  0  0  0  0  0  0  0  0
    1.0021   -1.1528   -0.6531 C   0  0  0  0  0  0  0  0  0  0  0  0
   -0.3279   -0.8606   -0.3258 C   0  0  0  0  0  0  0  0  0  0  0  0
   -0.6599    0.3828    0.2118 C   0  0  0  0  0  0  0  0  0  0  0  0
   -1.9120    0.7957    0.5737 O   0  0  0  0  0  0  0  0  0  0  0  0
   -2.9750   -0.1287    0.3794 C   0  0  0  0  0  0  0  0  0  0  0  0
    0.3483    1.3280    0.4157 C   0  0  0  0  0  0  0  0  0  0  0  0
    1.6764    1.0381    0.0896 C   0  0  0  0  0  0  0  0  0  0  0  0
    4.2722    0.1133    0.1039 H   0  0  0  0  0  0  0  0  0  0  0  0
    1.2419   -2.1267   -1.0741 H   0  0  0  0  0  0  0  0  0  0  0  0
   -1.0756   -1.6257   -0.5054 H   0  0  0  0  0  0  0  0  0  0  0  0
   -3.0930   -0.3777   -0.6804 H   0  0  0  0  0  0  0  0  0  0  0  0
   -2.8299   -1.0300    0.9842 H   0  0  0  0  0  0  0  0  0  0  0  0
   -3.9001    0.3508    0.7136 H   0  0  0  0  0  0  0  0  0  0  0  0
    0.0963    2.3013    0.8301 H   0  0  0  0  0  0  0  0  0  0  0  0
    2.4366    1.7975    0.2521 H   0  0  0  0  0  0  0  0  0  0  0  0
  1  2  1  0  0  0  0
  1 10  1  0  0  0  0
  2  9  1  0  0  0  0
  3  2  2  0  0  0  0
  3  4  1  0  0  0  0
  4  5  2  0  0  0  0
  5  8  1  0  0  0  0
  5  6  1  0  0  0  0
  7  6  1  0  0  0  0
  7 15  1  0  0  0  0
  7 14  1  0  0  0  0
  8 16  1  0  0  0  0
  9 17  1  0  0  0  0
  9  8  2  0  0  0  0
 11  3  1  0  0  0  0
 12  4  1  0  0  0  0
 13  7  1  0  0  0  0
M  END
$$$$
