SC1=CC=CC=C1C
 OpenBabel09032014133D

 16 16  0  0  0  0  0  0  0  0999 V2000
   -1.0909    2.3849    0.7212 S   0  0  0  0  0  0  0  0  0  0  0  0
   -0.0557    0.9812    0.3310 C   0  0  0  0  0  0  0  0  0  0  0  0
    1.3324    1.1754    0.3560 C   0  0  0  0  0  0  0  0  0  0  0  0
    2.2032    0.1277    0.0561 C   0  0  0  0  0  0  0  0  0  0  0  0
    1.6932   -1.1243   -0.2700 C   0  0  0  0  0  0  0  0  0  0  0  0
    0.3134   -1.3301   -0.2934 C   0  0  0  0  0  0  0  0  0  0  0  0
   -0.5778   -0.2858    0.0081 C   0  0  0  0  0  0  0  0  0  0  0  0
   -2.0563   -0.5621   -0.0226 C   0  0  0  0  0  0  0  0  0  0  0  0
   -1.7788    2.3760   -0.4295 H   0  0  0  0  0  0  0  0  0  0  0  0
    1.7479    2.1482    0.6102 H   0  0  0  0  0  0  0  0  0  0  0  0
    3.2775    0.2907    0.0786 H   0  0  0  0  0  0  0  0  0  0  0  0
    2.3688   -1.9433   -0.5036 H   0  0  0  0  0  0  0  0  0  0  0  0
   -0.0642   -2.3188   -0.5470 H   0  0  0  0  0  0  0  0  0  0  0  0
   -2.5057   -0.3557    0.9540 H   0  0  0  0  0  0  0  0  0  0  0  0
   -2.5434    0.0475   -0.7902 H   0  0  0  0  0  0  0  0  0  0  0  0
   -2.2635   -1.6115   -0.2590 H   0  0  0  0  0  0  0  0  0  0  0  0
  2  3  1  0  0  0  0
  2  1  1  0  0  0  0
  3 10  1  0  0  0  0
  4 11  1  0  0  0  0
  4  3  2  0  0  0  0
  5  4  1  0  0  0  0
  6  5  2  0  0  0  0
  6  7  1  0  0  0  0
  7  2  2  0  0  0  0
  8  7  1  0  0  0  0
  8 14  1  0  0  0  0
  9  1  1  0  0  0  0
 12  5  1  0  0  0  0
 13  6  1  0  0  0  0
 15  8  1  0  0  0  0
 16  8  1  0  0  0  0
M  END
$$$$
